
---------- Begin Simulation Statistics ----------
final_tick                                  325733000                       # Number of ticks from beginning of simulation (restored from checkpoints and never reset)
host_inst_rate                                 430916                       # Simulator instruction rate (inst/s)
host_mem_usage                                1170812                       # Number of bytes of host memory used
host_op_rate                                   857336                       # Simulator op (including micro ops) rate (op/s)
host_seconds                                     2.59                       # Real time elapsed on the host
host_tick_rate                              125805008                       # Simulator tick rate (ticks/s)
sim_freq                                 1000000000000                       # Frequency of simulated ticks
sim_insts                                     1115694                       # Number of instructions simulated
sim_ops                                       2219797                       # Number of ops (including micro ops) simulated
sim_seconds                                  0.000326                       # Number of seconds simulated
sim_ticks                                   325733000                       # Number of ticks simulated
system.cpu.cc_regfile_reads                   1207313                       # number of cc regfile reads
system.cpu.cc_regfile_writes                   742810                       # number of cc regfile writes
system.cpu.committedInsts                     1115694                       # Number of Instructions Simulated
system.cpu.committedOps                       2219797                       # Number of Ops (including micro ops) Simulated
system.cpu.cpi                               0.583912                       # CPI: Cycles Per Instruction
system.cpu.cpi_total                         0.583912                       # CPI: Total CPI of All Threads
system.cpu.idleCycles                           32960                       # Total number of cycles that the CPU has spent unscheduled due to idling
system.cpu.iew.branchMispredicts                 4689                       # Number of branch mispredicts detected at execute
system.cpu.iew.exec_branches                   252114                       # Number of branches executed
system.cpu.iew.exec_nop                             0                       # number of nop insts executed
system.cpu.iew.exec_rate                     3.512694                       # Inst execution rate
system.cpu.iew.exec_refs                       575254                       # number of memory reference insts executed
system.cpu.iew.exec_stores                     222706                       # Number of stores executed
system.cpu.iew.exec_swp                             0                       # number of swp insts executed
system.cpu.iew.iewBlockCycles                   14262                       # Number of cycles IEW is blocking
system.cpu.iew.iewDispLoadInsts                361278                       # Number of dispatched load instructions
system.cpu.iew.iewDispNonSpecInsts                 48                       # Number of dispatched non-speculative instructions
system.cpu.iew.iewDispSquashedInsts                48                       # Number of squashed instructions skipped by dispatch
system.cpu.iew.iewDispStoreInsts               230546                       # Number of dispatched store instructions
system.cpu.iew.iewDispatchedInsts             2343320                       # Number of instructions dispatched to IQ
system.cpu.iew.iewExecLoadInsts                352548                       # Number of load instructions executed
system.cpu.iew.iewExecSquashedInsts              6797                       # Number of squashed instructions skipped in execute
system.cpu.iew.iewExecutedInsts               2288404                       # Number of executed instructions
system.cpu.iew.iewIQFullEvents                      2                       # Number of times the IQ has become full, causing a stall
system.cpu.iew.iewIdleCycles                        0                       # Number of cycles IEW is idle
system.cpu.iew.iewLSQFullEvents                   201                       # Number of times the LSQ has become full, causing a stall
system.cpu.iew.iewSquashCycles                   4071                       # Number of cycles IEW is squashing
system.cpu.iew.iewUnblockCycles                   202                       # Number of cycles IEW is unblocking
system.cpu.iew.memOrderViolationEvents            103                       # Number of memory order violations
system.cpu.iew.predictedNotTakenIncorrect         2938                       # Number of branches that were predicted not taken incorrectly
system.cpu.iew.predictedTakenIncorrect           1751                       # Number of branches that were predicted taken incorrectly
system.cpu.iew.wb_consumers                   2884477                       # num instructions consuming a value
system.cpu.iew.wb_count                       2284437                       # cumulative count of insts written-back
system.cpu.iew.wb_fanout                     0.596556                       # average fanout of values written-back
system.cpu.iew.wb_producers                   1720752                       # num instructions producing a value
system.cpu.iew.wb_rate                       3.506604                       # insts written-back per cycle
system.cpu.iew.wb_sent                        2287108                       # cumulative count of insts sent to commit
system.cpu.int_regfile_reads                  3407846                       # number of integer regfile reads
system.cpu.int_regfile_writes                 1803159                       # number of integer regfile writes
system.cpu.ipc                               1.712587                       # IPC: Instructions Per Cycle
system.cpu.ipc_total                         1.712587                       # IPC: Total IPC of All Threads
system.cpu.iq.FU_type_0::No_OpClass             10659      0.46%      0.46% # Type of FU issued
system.cpu.iq.FU_type_0::IntAlu               1705552     74.31%     74.77% # Type of FU issued
system.cpu.iq.FU_type_0::IntMult                  912      0.04%     74.81% # Type of FU issued
system.cpu.iq.FU_type_0::IntDiv                    31      0.00%     74.81% # Type of FU issued
system.cpu.iq.FU_type_0::FloatAdd                   0      0.00%     74.81% # Type of FU issued
system.cpu.iq.FU_type_0::FloatCmp                   0      0.00%     74.81% # Type of FU issued
system.cpu.iq.FU_type_0::FloatCvt                   0      0.00%     74.81% # Type of FU issued
system.cpu.iq.FU_type_0::FloatMult                  0      0.00%     74.81% # Type of FU issued
system.cpu.iq.FU_type_0::FloatMultAcc               0      0.00%     74.81% # Type of FU issued
system.cpu.iq.FU_type_0::FloatDiv                   0      0.00%     74.81% # Type of FU issued
system.cpu.iq.FU_type_0::FloatMisc                  0      0.00%     74.81% # Type of FU issued
system.cpu.iq.FU_type_0::FloatSqrt                  0      0.00%     74.81% # Type of FU issued
system.cpu.iq.FU_type_0::SimdAdd                    0      0.00%     74.81% # Type of FU issued
system.cpu.iq.FU_type_0::SimdAddAcc                 0      0.00%     74.81% # Type of FU issued
system.cpu.iq.FU_type_0::SimdAlu                    0      0.00%     74.81% # Type of FU issued
system.cpu.iq.FU_type_0::SimdCmp                    0      0.00%     74.81% # Type of FU issued
system.cpu.iq.FU_type_0::SimdCvt                    0      0.00%     74.81% # Type of FU issued
system.cpu.iq.FU_type_0::SimdMisc                   0      0.00%     74.81% # Type of FU issued
system.cpu.iq.FU_type_0::SimdMult                   0      0.00%     74.81% # Type of FU issued
system.cpu.iq.FU_type_0::SimdMultAcc                0      0.00%     74.81% # Type of FU issued
system.cpu.iq.FU_type_0::SimdShift                  0      0.00%     74.81% # Type of FU issued
system.cpu.iq.FU_type_0::SimdShiftAcc               0      0.00%     74.81% # Type of FU issued
system.cpu.iq.FU_type_0::SimdDiv                    0      0.00%     74.81% # Type of FU issued
system.cpu.iq.FU_type_0::SimdSqrt                   0      0.00%     74.81% # Type of FU issued
system.cpu.iq.FU_type_0::SimdFloatAdd               0      0.00%     74.81% # Type of FU issued
system.cpu.iq.FU_type_0::SimdFloatAlu               0      0.00%     74.81% # Type of FU issued
system.cpu.iq.FU_type_0::SimdFloatCmp               0      0.00%     74.81% # Type of FU issued
system.cpu.iq.FU_type_0::SimdFloatCvt               0      0.00%     74.81% # Type of FU issued
system.cpu.iq.FU_type_0::SimdFloatDiv               0      0.00%     74.81% # Type of FU issued
system.cpu.iq.FU_type_0::SimdFloatMisc              0      0.00%     74.81% # Type of FU issued
system.cpu.iq.FU_type_0::SimdFloatMult              0      0.00%     74.81% # Type of FU issued
system.cpu.iq.FU_type_0::SimdFloatMultAcc            0      0.00%     74.81% # Type of FU issued
system.cpu.iq.FU_type_0::SimdFloatSqrt              0      0.00%     74.81% # Type of FU issued
system.cpu.iq.FU_type_0::SimdReduceAdd              0      0.00%     74.81% # Type of FU issued
system.cpu.iq.FU_type_0::SimdReduceAlu              0      0.00%     74.81% # Type of FU issued
system.cpu.iq.FU_type_0::SimdReduceCmp              0      0.00%     74.81% # Type of FU issued
system.cpu.iq.FU_type_0::SimdFloatReduceAdd            0      0.00%     74.81% # Type of FU issued
system.cpu.iq.FU_type_0::SimdFloatReduceCmp            0      0.00%     74.81% # Type of FU issued
system.cpu.iq.FU_type_0::SimdAes                    0      0.00%     74.81% # Type of FU issued
system.cpu.iq.FU_type_0::SimdAesMix                 0      0.00%     74.81% # Type of FU issued
system.cpu.iq.FU_type_0::SimdSha1Hash               0      0.00%     74.81% # Type of FU issued
system.cpu.iq.FU_type_0::SimdSha1Hash2              0      0.00%     74.81% # Type of FU issued
system.cpu.iq.FU_type_0::SimdSha256Hash             0      0.00%     74.81% # Type of FU issued
system.cpu.iq.FU_type_0::SimdSha256Hash2            0      0.00%     74.81% # Type of FU issued
system.cpu.iq.FU_type_0::SimdShaSigma2              0      0.00%     74.81% # Type of FU issued
system.cpu.iq.FU_type_0::SimdShaSigma3              0      0.00%     74.81% # Type of FU issued
system.cpu.iq.FU_type_0::SimdPredAlu                0      0.00%     74.81% # Type of FU issued
system.cpu.iq.FU_type_0::MemRead               354783     15.46%     90.27% # Type of FU issued
system.cpu.iq.FU_type_0::MemWrite              223264      9.73%    100.00% # Type of FU issued
system.cpu.iq.FU_type_0::FloatMemRead               0      0.00%    100.00% # Type of FU issued
system.cpu.iq.FU_type_0::FloatMemWrite              0      0.00%    100.00% # Type of FU issued
system.cpu.iq.FU_type_0::IprAccess                  0      0.00%    100.00% # Type of FU issued
system.cpu.iq.FU_type_0::InstPrefetch               0      0.00%    100.00% # Type of FU issued
system.cpu.iq.FU_type_0::total                2295201                       # Type of FU issued
system.cpu.iq.fp_alu_accesses                       0                       # Number of floating point alu accesses
system.cpu.iq.fp_inst_queue_reads                   0                       # Number of floating instruction queue reads
system.cpu.iq.fp_inst_queue_wakeup_accesses            0                       # Number of floating instruction queue wakeup accesses
system.cpu.iq.fp_inst_queue_writes                  0                       # Number of floating instruction queue writes
system.cpu.iq.fu_busy_cnt                       26007                       # FU busy when requested
system.cpu.iq.fu_busy_rate                   0.011331                       # FU busy rate (busy events/executed inst)
system.cpu.iq.fu_full::No_OpClass                   0      0.00%      0.00% # attempts to use FU when none available
system.cpu.iq.fu_full::IntAlu                   20465     78.69%     78.69% # attempts to use FU when none available
system.cpu.iq.fu_full::IntMult                      0      0.00%     78.69% # attempts to use FU when none available
system.cpu.iq.fu_full::IntDiv                       0      0.00%     78.69% # attempts to use FU when none available
system.cpu.iq.fu_full::FloatAdd                     0      0.00%     78.69% # attempts to use FU when none available
system.cpu.iq.fu_full::FloatCmp                     0      0.00%     78.69% # attempts to use FU when none available
system.cpu.iq.fu_full::FloatCvt                     0      0.00%     78.69% # attempts to use FU when none available
system.cpu.iq.fu_full::FloatMult                    0      0.00%     78.69% # attempts to use FU when none available
system.cpu.iq.fu_full::FloatMultAcc                 0      0.00%     78.69% # attempts to use FU when none available
system.cpu.iq.fu_full::FloatDiv                     0      0.00%     78.69% # attempts to use FU when none available
system.cpu.iq.fu_full::FloatMisc                    0      0.00%     78.69% # attempts to use FU when none available
system.cpu.iq.fu_full::FloatSqrt                    0      0.00%     78.69% # attempts to use FU when none available
system.cpu.iq.fu_full::SimdAdd                      0      0.00%     78.69% # attempts to use FU when none available
system.cpu.iq.fu_full::SimdAddAcc                   0      0.00%     78.69% # attempts to use FU when none available
system.cpu.iq.fu_full::SimdAlu                      0      0.00%     78.69% # attempts to use FU when none available
system.cpu.iq.fu_full::SimdCmp                      0      0.00%     78.69% # attempts to use FU when none available
system.cpu.iq.fu_full::SimdCvt                      0      0.00%     78.69% # attempts to use FU when none available
system.cpu.iq.fu_full::SimdMisc                     0      0.00%     78.69% # attempts to use FU when none available
system.cpu.iq.fu_full::SimdMult                     0      0.00%     78.69% # attempts to use FU when none available
system.cpu.iq.fu_full::SimdMultAcc                  0      0.00%     78.69% # attempts to use FU when none available
system.cpu.iq.fu_full::SimdShift                    0      0.00%     78.69% # attempts to use FU when none available
system.cpu.iq.fu_full::SimdShiftAcc                 0      0.00%     78.69% # attempts to use FU when none available
system.cpu.iq.fu_full::SimdDiv                      0      0.00%     78.69% # attempts to use FU when none available
system.cpu.iq.fu_full::SimdSqrt                     0      0.00%     78.69% # attempts to use FU when none available
system.cpu.iq.fu_full::SimdFloatAdd                 0      0.00%     78.69% # attempts to use FU when none available
system.cpu.iq.fu_full::SimdFloatAlu                 0      0.00%     78.69% # attempts to use FU when none available
system.cpu.iq.fu_full::SimdFloatCmp                 0      0.00%     78.69% # attempts to use FU when none available
system.cpu.iq.fu_full::SimdFloatCvt                 0      0.00%     78.69% # attempts to use FU when none available
system.cpu.iq.fu_full::SimdFloatDiv                 0      0.00%     78.69% # attempts to use FU when none available
system.cpu.iq.fu_full::SimdFloatMisc                0      0.00%     78.69% # attempts to use FU when none available
system.cpu.iq.fu_full::SimdFloatMult                0      0.00%     78.69% # attempts to use FU when none available
system.cpu.iq.fu_full::SimdFloatMultAcc             0      0.00%     78.69% # attempts to use FU when none available
system.cpu.iq.fu_full::SimdFloatSqrt                0      0.00%     78.69% # attempts to use FU when none available
system.cpu.iq.fu_full::SimdReduceAdd                0      0.00%     78.69% # attempts to use FU when none available
system.cpu.iq.fu_full::SimdReduceAlu                0      0.00%     78.69% # attempts to use FU when none available
system.cpu.iq.fu_full::SimdReduceCmp                0      0.00%     78.69% # attempts to use FU when none available
system.cpu.iq.fu_full::SimdFloatReduceAdd            0      0.00%     78.69% # attempts to use FU when none available
system.cpu.iq.fu_full::SimdFloatReduceCmp            0      0.00%     78.69% # attempts to use FU when none available
system.cpu.iq.fu_full::SimdAes                      0      0.00%     78.69% # attempts to use FU when none available
system.cpu.iq.fu_full::SimdAesMix                   0      0.00%     78.69% # attempts to use FU when none available
system.cpu.iq.fu_full::SimdSha1Hash                 0      0.00%     78.69% # attempts to use FU when none available
system.cpu.iq.fu_full::SimdSha1Hash2                0      0.00%     78.69% # attempts to use FU when none available
system.cpu.iq.fu_full::SimdSha256Hash               0      0.00%     78.69% # attempts to use FU when none available
system.cpu.iq.fu_full::SimdSha256Hash2              0      0.00%     78.69% # attempts to use FU when none available
system.cpu.iq.fu_full::SimdShaSigma2                0      0.00%     78.69% # attempts to use FU when none available
system.cpu.iq.fu_full::SimdShaSigma3                0      0.00%     78.69% # attempts to use FU when none available
system.cpu.iq.fu_full::SimdPredAlu                  0      0.00%     78.69% # attempts to use FU when none available
system.cpu.iq.fu_full::MemRead                   5500     21.15%     99.84% # attempts to use FU when none available
system.cpu.iq.fu_full::MemWrite                    42      0.16%    100.00% # attempts to use FU when none available
system.cpu.iq.fu_full::FloatMemRead                 0      0.00%    100.00% # attempts to use FU when none available
system.cpu.iq.fu_full::FloatMemWrite                0      0.00%    100.00% # attempts to use FU when none available
system.cpu.iq.fu_full::IprAccess                    0      0.00%    100.00% # attempts to use FU when none available
system.cpu.iq.fu_full::InstPrefetch                 0      0.00%    100.00% # attempts to use FU when none available
system.cpu.iq.int_alu_accesses                2310549                       # Number of integer alu accesses
system.cpu.iq.int_inst_queue_reads            5235130                       # Number of integer instruction queue reads
system.cpu.iq.int_inst_queue_wakeup_accesses      2284437                       # Number of integer instruction queue wakeup accesses
system.cpu.iq.int_inst_queue_writes           2466923                       # Number of integer instruction queue writes
system.cpu.iq.iqInstsAdded                    2343192                       # Number of instructions added to the IQ (excludes non-spec)
system.cpu.iq.iqInstsIssued                   2295201                       # Number of instructions issued
system.cpu.iq.iqNonSpecInstsAdded                 128                       # Number of non-speculative instructions added to the IQ
system.cpu.iq.iqSquashedInstsExamined          123501                       # Number of squashed instructions iterated over during squash; mainly for profiling
system.cpu.iq.iqSquashedInstsIssued               214                       # Number of squashed instructions issued
system.cpu.iq.iqSquashedNonSpecRemoved            126                       # Number of squashed non-spec instructions that were removed
system.cpu.iq.iqSquashedOperandsExamined       189646                       # Number of squashed operands that are examined and possibly removed from graph
system.cpu.iq.issued_per_cycle::samples        618507                       # Number of insts issued each cycle
system.cpu.iq.issued_per_cycle::mean         3.710873                       # Number of insts issued each cycle
system.cpu.iq.issued_per_cycle::stdev        2.119895                       # Number of insts issued each cycle
system.cpu.iq.issued_per_cycle::underflows            0      0.00%      0.00% # Number of insts issued each cycle
system.cpu.iq.issued_per_cycle::0               64478     10.42%     10.42% # Number of insts issued each cycle
system.cpu.iq.issued_per_cycle::1               35262      5.70%     16.13% # Number of insts issued each cycle
system.cpu.iq.issued_per_cycle::2               79986     12.93%     29.06% # Number of insts issued each cycle
system.cpu.iq.issued_per_cycle::3               97619     15.78%     44.84% # Number of insts issued each cycle
system.cpu.iq.issued_per_cycle::4              113496     18.35%     63.19% # Number of insts issued each cycle
system.cpu.iq.issued_per_cycle::5               91773     14.84%     78.03% # Number of insts issued each cycle
system.cpu.iq.issued_per_cycle::6               74397     12.03%     90.06% # Number of insts issued each cycle
system.cpu.iq.issued_per_cycle::7               44089      7.13%     97.19% # Number of insts issued each cycle
system.cpu.iq.issued_per_cycle::8               17407      2.81%    100.00% # Number of insts issued each cycle
system.cpu.iq.issued_per_cycle::overflows            0      0.00%    100.00% # Number of insts issued each cycle
system.cpu.iq.issued_per_cycle::min_value            0                       # Number of insts issued each cycle
system.cpu.iq.issued_per_cycle::max_value            8                       # Number of insts issued each cycle
system.cpu.iq.issued_per_cycle::total          618507                       # Number of insts issued each cycle
system.cpu.iq.rate                           3.523127                       # Inst issue rate
system.cpu.iq.vec_alu_accesses                      0                       # Number of vector alu accesses
system.cpu.iq.vec_inst_queue_reads                  0                       # Number of vector instruction queue reads
system.cpu.iq.vec_inst_queue_wakeup_accesses            0                       # Number of vector instruction queue wakeup accesses
system.cpu.iq.vec_inst_queue_writes                 0                       # Number of vector instruction queue writes
system.cpu.memDep0.conflictingLoads             58340                       # Number of conflicting loads.
system.cpu.memDep0.conflictingStores            28963                       # Number of conflicting stores.
system.cpu.memDep0.insertedLoads               361278                       # Number of loads inserted to the mem dependence unit.
system.cpu.memDep0.insertedStores              230546                       # Number of stores inserted to the mem dependence unit.
system.cpu.misc_regfile_reads                 1046951                       # number of misc regfile reads
system.cpu.misc_regfile_writes                      4                       # number of misc regfile writes
system.cpu.numCycles                           651467                       # number of cpu cycles simulated
system.cpu.numWorkItemsCompleted                    0                       # number of work items this cpu completed
system.cpu.numWorkItemsStarted                      0                       # number of work items this cpu started
system.cpu.timesIdled                             302                       # Number of times that the entire CPU went into an idle state and unscheduled itself
system.cpu.workload.numSyscalls                   138                       # Number of system calls
system.membus.snoop_filter.hit_multi_requests            0                       # Number of requests hitting in the snoop filter with multiple (>1) holders of the requested data.
system.membus.snoop_filter.hit_multi_snoops            0                       # Number of snoops hitting in the snoop filter with multiple (>1) holders of the requested data.
system.membus.snoop_filter.hit_single_requests            0                       # Number of requests hitting in the snoop filter with a single holder of the requested data.
system.membus.snoop_filter.hit_single_snoops            0                       # Number of snoops hitting in the snoop filter with a single holder of the requested data.
system.membus.snoop_filter.tot_requests           621                       # Total number of requests made to the snoop filter.
system.membus.snoop_filter.tot_snoops               0                       # Total number of snoops made to the snoop filter.
system.tol2bus.snoop_filter.hit_multi_requests            1                       # Number of requests hitting in the snoop filter with multiple (>1) holders of the requested data.
system.tol2bus.snoop_filter.hit_multi_snoops            0                       # Number of snoops hitting in the snoop filter with multiple (>1) holders of the requested data.
system.tol2bus.snoop_filter.hit_single_requests          151                       # Number of requests hitting in the snoop filter with a single holder of the requested data.
system.tol2bus.snoop_filter.hit_single_snoops            0                       # Number of snoops hitting in the snoop filter with a single holder of the requested data.
system.tol2bus.snoop_filter.tot_requests          790                       # Total number of requests made to the snoop filter.
system.tol2bus.snoop_filter.tot_snoops              0                       # Total number of snoops made to the snoop filter.
system.clk_domain.clock                           500                       # Clock period in ticks
system.cpu.branchPred.lookups                  267660                       # Number of BP lookups
system.cpu.branchPred.condPredicted            192022                       # Number of conditional branches predicted
system.cpu.branchPred.condIncorrect              3963                       # Number of conditional branches incorrect
system.cpu.branchPred.BTBLookups               127756                       # Number of BTB lookups
system.cpu.branchPred.BTBHits                  126677                       # Number of BTB hits
system.cpu.branchPred.BTBHitPct             99.155421                       # BTB Hit Percentage
system.cpu.branchPred.RASUsed                   29024                       # Number of times the RAS was used to get a target.
system.cpu.branchPred.RASIncorrect                146                       # Number of incorrect RAS predictions.
system.cpu.branchPred.indirectLookups            6399                       # Number of indirect predictor lookups.
system.cpu.branchPred.indirectHits               6166                       # Number of indirect target hits.
system.cpu.branchPred.indirectMisses              233                       # Number of indirect misses.
system.cpu.branchPred.indirectMispredicted           90                       # Number of mispredicted indirect branches.
system.cpu.commit.commitSquashedInsts          123258                       # The number of squashed insts skipped by commit
system.cpu.commit.commitNonSpecStalls               2                       # The number of times commit has been forced to stall to communicate backwards
system.cpu.commit.branchMispredicts              3837                       # The number of times a branch was mispredicted
system.cpu.commit.numCommittedDist::samples       600385                       # Number of insts commited each cycle
system.cpu.commit.numCommittedDist::mean     3.697289                       # Number of insts commited each cycle
system.cpu.commit.numCommittedDist::stdev     3.044268                       # Number of insts commited each cycle
system.cpu.commit.numCommittedDist::underflows            0      0.00%      0.00% # Number of insts commited each cycle
system.cpu.commit.numCommittedDist::0          106971     17.82%     17.82% # Number of insts commited each cycle
system.cpu.commit.numCommittedDist::1           91968     15.32%     33.14% # Number of insts commited each cycle
system.cpu.commit.numCommittedDist::2           55790      9.29%     42.43% # Number of insts commited each cycle
system.cpu.commit.numCommittedDist::3           97682     16.27%     58.70% # Number of insts commited each cycle
system.cpu.commit.numCommittedDist::4           37282      6.21%     64.91% # Number of insts commited each cycle
system.cpu.commit.numCommittedDist::5           22531      3.75%     68.66% # Number of insts commited each cycle
system.cpu.commit.numCommittedDist::6           16497      2.75%     71.41% # Number of insts commited each cycle
system.cpu.commit.numCommittedDist::7           10874      1.81%     73.22% # Number of insts commited each cycle
system.cpu.commit.numCommittedDist::8          160790     26.78%    100.00% # Number of insts commited each cycle
system.cpu.commit.numCommittedDist::overflows            0      0.00%    100.00% # Number of insts commited each cycle
system.cpu.commit.numCommittedDist::min_value            0                       # Number of insts commited each cycle
system.cpu.commit.numCommittedDist::max_value            8                       # Number of insts commited each cycle
system.cpu.commit.numCommittedDist::total       600385                       # Number of insts commited each cycle
system.cpu.commit.instsCommitted              1115694                       # Number of instructions committed
system.cpu.commit.opsCommitted                2219797                       # Number of ops (including micro ops) committed
system.cpu.commit.memRefs                      562770                       # Number of memory references committed
system.cpu.commit.loads                        343670                       # Number of loads committed
system.cpu.commit.amos                              0                       # Number of atomic instructions committed
system.cpu.commit.membars                           0                       # Number of memory barriers committed
system.cpu.commit.branches                     247447                       # Number of branches committed
system.cpu.commit.vector                            0                       # Number of committed Vector instructions.
system.cpu.commit.floating                          0                       # Number of committed floating point instructions.
system.cpu.commit.integer                     2210437                       # Number of committed integer instructions.
system.cpu.commit.functionCalls                 26463                       # Number of function calls committed.
system.cpu.commit.committedInstType_0::No_OpClass         8883      0.40%      0.40% # Class of committed instruction
system.cpu.commit.committedInstType_0::IntAlu      1647218     74.21%     74.61% # Class of committed instruction
system.cpu.commit.committedInstType_0::IntMult          905      0.04%     74.65% # Class of committed instruction
system.cpu.commit.committedInstType_0::IntDiv           21      0.00%     74.65% # Class of committed instruction
system.cpu.commit.committedInstType_0::FloatAdd            0      0.00%     74.65% # Class of committed instruction
system.cpu.commit.committedInstType_0::FloatCmp            0      0.00%     74.65% # Class of committed instruction
system.cpu.commit.committedInstType_0::FloatCvt            0      0.00%     74.65% # Class of committed instruction
system.cpu.commit.committedInstType_0::FloatMult            0      0.00%     74.65% # Class of committed instruction
system.cpu.commit.committedInstType_0::FloatMultAcc            0      0.00%     74.65% # Class of committed instruction
system.cpu.commit.committedInstType_0::FloatDiv            0      0.00%     74.65% # Class of committed instruction
system.cpu.commit.committedInstType_0::FloatMisc            0      0.00%     74.65% # Class of committed instruction
system.cpu.commit.committedInstType_0::FloatSqrt            0      0.00%     74.65% # Class of committed instruction
system.cpu.commit.committedInstType_0::SimdAdd            0      0.00%     74.65% # Class of committed instruction
system.cpu.commit.committedInstType_0::SimdAddAcc            0      0.00%     74.65% # Class of committed instruction
system.cpu.commit.committedInstType_0::SimdAlu            0      0.00%     74.65% # Class of committed instruction
system.cpu.commit.committedInstType_0::SimdCmp            0      0.00%     74.65% # Class of committed instruction
system.cpu.commit.committedInstType_0::SimdCvt            0      0.00%     74.65% # Class of committed instruction
system.cpu.commit.committedInstType_0::SimdMisc            0      0.00%     74.65% # Class of committed instruction
system.cpu.commit.committedInstType_0::SimdMult            0      0.00%     74.65% # Class of committed instruction
system.cpu.commit.committedInstType_0::SimdMultAcc            0      0.00%     74.65% # Class of committed instruction
system.cpu.commit.committedInstType_0::SimdShift            0      0.00%     74.65% # Class of committed instruction
system.cpu.commit.committedInstType_0::SimdShiftAcc            0      0.00%     74.65% # Class of committed instruction
system.cpu.commit.committedInstType_0::SimdDiv            0      0.00%     74.65% # Class of committed instruction
system.cpu.commit.committedInstType_0::SimdSqrt            0      0.00%     74.65% # Class of committed instruction
system.cpu.commit.committedInstType_0::SimdFloatAdd            0      0.00%     74.65% # Class of committed instruction
system.cpu.commit.committedInstType_0::SimdFloatAlu            0      0.00%     74.65% # Class of committed instruction
system.cpu.commit.committedInstType_0::SimdFloatCmp            0      0.00%     74.65% # Class of committed instruction
system.cpu.commit.committedInstType_0::SimdFloatCvt            0      0.00%     74.65% # Class of committed instruction
system.cpu.commit.committedInstType_0::SimdFloatDiv            0      0.00%     74.65% # Class of committed instruction
system.cpu.commit.committedInstType_0::SimdFloatMisc            0      0.00%     74.65% # Class of committed instruction
system.cpu.commit.committedInstType_0::SimdFloatMult            0      0.00%     74.65% # Class of committed instruction
system.cpu.commit.committedInstType_0::SimdFloatMultAcc            0      0.00%     74.65% # Class of committed instruction
system.cpu.commit.committedInstType_0::SimdFloatSqrt            0      0.00%     74.65% # Class of committed instruction
system.cpu.commit.committedInstType_0::SimdReduceAdd            0      0.00%     74.65% # Class of committed instruction
system.cpu.commit.committedInstType_0::SimdReduceAlu            0      0.00%     74.65% # Class of committed instruction
system.cpu.commit.committedInstType_0::SimdReduceCmp            0      0.00%     74.65% # Class of committed instruction
system.cpu.commit.committedInstType_0::SimdFloatReduceAdd            0      0.00%     74.65% # Class of committed instruction
system.cpu.commit.committedInstType_0::SimdFloatReduceCmp            0      0.00%     74.65% # Class of committed instruction
system.cpu.commit.committedInstType_0::SimdAes            0      0.00%     74.65% # Class of committed instruction
system.cpu.commit.committedInstType_0::SimdAesMix            0      0.00%     74.65% # Class of committed instruction
system.cpu.commit.committedInstType_0::SimdSha1Hash            0      0.00%     74.65% # Class of committed instruction
system.cpu.commit.committedInstType_0::SimdSha1Hash2            0      0.00%     74.65% # Class of committed instruction
system.cpu.commit.committedInstType_0::SimdSha256Hash            0      0.00%     74.65% # Class of committed instruction
system.cpu.commit.committedInstType_0::SimdSha256Hash2            0      0.00%     74.65% # Class of committed instruction
system.cpu.commit.committedInstType_0::SimdShaSigma2            0      0.00%     74.65% # Class of committed instruction
system.cpu.commit.committedInstType_0::SimdShaSigma3            0      0.00%     74.65% # Class of committed instruction
system.cpu.commit.committedInstType_0::SimdPredAlu            0      0.00%     74.65% # Class of committed instruction
system.cpu.commit.committedInstType_0::MemRead       343670     15.48%     90.13% # Class of committed instruction
system.cpu.commit.committedInstType_0::MemWrite       219100      9.87%    100.00% # Class of committed instruction
system.cpu.commit.committedInstType_0::FloatMemRead            0      0.00%    100.00% # Class of committed instruction
system.cpu.commit.committedInstType_0::FloatMemWrite            0      0.00%    100.00% # Class of committed instruction
system.cpu.commit.committedInstType_0::IprAccess            0      0.00%    100.00% # Class of committed instruction
system.cpu.commit.committedInstType_0::InstPrefetch            0      0.00%    100.00% # Class of committed instruction
system.cpu.commit.committedInstType_0::total      2219797                       # Class of committed instruction
system.cpu.commit.commitEligibleSamples        160790                       # number cycles where commit BW limit reached
system.cpu.dcache.demand_hits::.cpu.data       452494                       # number of demand (read+write) hits
system.cpu.dcache.demand_hits::total           452494                       # number of demand (read+write) hits
system.cpu.dcache.overall_hits::.cpu.data       452494                       # number of overall hits
system.cpu.dcache.overall_hits::total          452494                       # number of overall hits
system.cpu.dcache.demand_misses::.cpu.data          223                       # number of demand (read+write) misses
system.cpu.dcache.demand_misses::total            223                       # number of demand (read+write) misses
system.cpu.dcache.overall_misses::.cpu.data          223                       # number of overall misses
system.cpu.dcache.overall_misses::total           223                       # number of overall misses
system.cpu.dcache.demand_miss_latency::.cpu.data     16138499                       # number of demand (read+write) miss cycles
system.cpu.dcache.demand_miss_latency::total     16138499                       # number of demand (read+write) miss cycles
system.cpu.dcache.overall_miss_latency::.cpu.data     16138499                       # number of overall miss cycles
system.cpu.dcache.overall_miss_latency::total     16138499                       # number of overall miss cycles
system.cpu.dcache.demand_accesses::.cpu.data       452717                       # number of demand (read+write) accesses
system.cpu.dcache.demand_accesses::total       452717                       # number of demand (read+write) accesses
system.cpu.dcache.overall_accesses::.cpu.data       452717                       # number of overall (read+write) accesses
system.cpu.dcache.overall_accesses::total       452717                       # number of overall (read+write) accesses
system.cpu.dcache.demand_miss_rate::.cpu.data     0.000493                       # miss rate for demand accesses
system.cpu.dcache.demand_miss_rate::total     0.000493                       # miss rate for demand accesses
system.cpu.dcache.overall_miss_rate::.cpu.data     0.000493                       # miss rate for overall accesses
system.cpu.dcache.overall_miss_rate::total     0.000493                       # miss rate for overall accesses
system.cpu.dcache.demand_avg_miss_latency::.cpu.data 72369.950673                       # average overall miss latency
system.cpu.dcache.demand_avg_miss_latency::total 72369.950673                       # average overall miss latency
system.cpu.dcache.overall_avg_miss_latency::.cpu.data 72369.950673                       # average overall miss latency
system.cpu.dcache.overall_avg_miss_latency::total 72369.950673                       # average overall miss latency
system.cpu.dcache.blocked_cycles::no_mshrs          152                       # number of cycles access was blocked
system.cpu.dcache.blocked_cycles::no_targets            0                       # number of cycles access was blocked
system.cpu.dcache.blocked::no_mshrs                 4                       # number of cycles access was blocked
system.cpu.dcache.blocked::no_targets               0                       # number of cycles access was blocked
system.cpu.dcache.avg_blocked_cycles::no_mshrs           38                       # average number of cycles each access was blocked
system.cpu.dcache.avg_blocked_cycles::no_targets          nan                       # average number of cycles each access was blocked
system.cpu.dcache.writebacks::.writebacks            1                       # number of writebacks
system.cpu.dcache.writebacks::total                 1                       # number of writebacks
system.cpu.dcache.demand_mshr_hits::.cpu.data           65                       # number of demand (read+write) MSHR hits
system.cpu.dcache.demand_mshr_hits::total           65                       # number of demand (read+write) MSHR hits
system.cpu.dcache.overall_mshr_hits::.cpu.data           65                       # number of overall MSHR hits
system.cpu.dcache.overall_mshr_hits::total           65                       # number of overall MSHR hits
system.cpu.dcache.demand_mshr_misses::.cpu.data          158                       # number of demand (read+write) MSHR misses
system.cpu.dcache.demand_mshr_misses::total          158                       # number of demand (read+write) MSHR misses
system.cpu.dcache.overall_mshr_misses::.cpu.data          158                       # number of overall MSHR misses
system.cpu.dcache.overall_mshr_misses::total          158                       # number of overall MSHR misses
system.cpu.dcache.demand_mshr_miss_latency::.cpu.data     12515000                       # number of demand (read+write) MSHR miss cycles
system.cpu.dcache.demand_mshr_miss_latency::total     12515000                       # number of demand (read+write) MSHR miss cycles
system.cpu.dcache.overall_mshr_miss_latency::.cpu.data     12515000                       # number of overall MSHR miss cycles
system.cpu.dcache.overall_mshr_miss_latency::total     12515000                       # number of overall MSHR miss cycles
system.cpu.dcache.demand_mshr_miss_rate::.cpu.data     0.000349                       # mshr miss rate for demand accesses
system.cpu.dcache.demand_mshr_miss_rate::total     0.000349                       # mshr miss rate for demand accesses
system.cpu.dcache.overall_mshr_miss_rate::.cpu.data     0.000349                       # mshr miss rate for overall accesses
system.cpu.dcache.overall_mshr_miss_rate::total     0.000349                       # mshr miss rate for overall accesses
system.cpu.dcache.demand_avg_mshr_miss_latency::.cpu.data 79208.860759                       # average overall mshr miss latency
system.cpu.dcache.demand_avg_mshr_miss_latency::total 79208.860759                       # average overall mshr miss latency
system.cpu.dcache.overall_avg_mshr_miss_latency::.cpu.data 79208.860759                       # average overall mshr miss latency
system.cpu.dcache.overall_avg_mshr_miss_latency::total 79208.860759                       # average overall mshr miss latency
system.cpu.dcache.replacements                      4                       # number of replacements
system.cpu.dcache.ReadReq_hits::.cpu.data       233477                       # number of ReadReq hits
system.cpu.dcache.ReadReq_hits::total          233477                       # number of ReadReq hits
system.cpu.dcache.ReadReq_misses::.cpu.data          140                       # number of ReadReq misses
system.cpu.dcache.ReadReq_misses::total           140                       # number of ReadReq misses
system.cpu.dcache.ReadReq_miss_latency::.cpu.data      9425500                       # number of ReadReq miss cycles
system.cpu.dcache.ReadReq_miss_latency::total      9425500                       # number of ReadReq miss cycles
system.cpu.dcache.ReadReq_accesses::.cpu.data       233617                       # number of ReadReq accesses(hits+misses)
system.cpu.dcache.ReadReq_accesses::total       233617                       # number of ReadReq accesses(hits+misses)
system.cpu.dcache.ReadReq_miss_rate::.cpu.data     0.000599                       # miss rate for ReadReq accesses
system.cpu.dcache.ReadReq_miss_rate::total     0.000599                       # miss rate for ReadReq accesses
system.cpu.dcache.ReadReq_avg_miss_latency::.cpu.data        67325                       # average ReadReq miss latency
system.cpu.dcache.ReadReq_avg_miss_latency::total        67325                       # average ReadReq miss latency
system.cpu.dcache.ReadReq_mshr_hits::.cpu.data           63                       # number of ReadReq MSHR hits
system.cpu.dcache.ReadReq_mshr_hits::total           63                       # number of ReadReq MSHR hits
system.cpu.dcache.ReadReq_mshr_misses::.cpu.data           77                       # number of ReadReq MSHR misses
system.cpu.dcache.ReadReq_mshr_misses::total           77                       # number of ReadReq MSHR misses
system.cpu.dcache.ReadReq_mshr_miss_latency::.cpu.data      5986500                       # number of ReadReq MSHR miss cycles
system.cpu.dcache.ReadReq_mshr_miss_latency::total      5986500                       # number of ReadReq MSHR miss cycles
system.cpu.dcache.ReadReq_mshr_miss_rate::.cpu.data     0.000330                       # mshr miss rate for ReadReq accesses
system.cpu.dcache.ReadReq_mshr_miss_rate::total     0.000330                       # mshr miss rate for ReadReq accesses
system.cpu.dcache.ReadReq_avg_mshr_miss_latency::.cpu.data 77746.753247                       # average ReadReq mshr miss latency
system.cpu.dcache.ReadReq_avg_mshr_miss_latency::total 77746.753247                       # average ReadReq mshr miss latency
system.cpu.dcache.WriteReq_hits::.cpu.data       219017                       # number of WriteReq hits
system.cpu.dcache.WriteReq_hits::total         219017                       # number of WriteReq hits
system.cpu.dcache.WriteReq_misses::.cpu.data           83                       # number of WriteReq misses
system.cpu.dcache.WriteReq_misses::total           83                       # number of WriteReq misses
system.cpu.dcache.WriteReq_miss_latency::.cpu.data      6712999                       # number of WriteReq miss cycles
system.cpu.dcache.WriteReq_miss_latency::total      6712999                       # number of WriteReq miss cycles
system.cpu.dcache.WriteReq_accesses::.cpu.data       219100                       # number of WriteReq accesses(hits+misses)
system.cpu.dcache.WriteReq_accesses::total       219100                       # number of WriteReq accesses(hits+misses)
system.cpu.dcache.WriteReq_miss_rate::.cpu.data     0.000379                       # miss rate for WriteReq accesses
system.cpu.dcache.WriteReq_miss_rate::total     0.000379                       # miss rate for WriteReq accesses
system.cpu.dcache.WriteReq_avg_miss_latency::.cpu.data 80879.506024                       # average WriteReq miss latency
system.cpu.dcache.WriteReq_avg_miss_latency::total 80879.506024                       # average WriteReq miss latency
system.cpu.dcache.WriteReq_mshr_hits::.cpu.data            2                       # number of WriteReq MSHR hits
system.cpu.dcache.WriteReq_mshr_hits::total            2                       # number of WriteReq MSHR hits
system.cpu.dcache.WriteReq_mshr_misses::.cpu.data           81                       # number of WriteReq MSHR misses
system.cpu.dcache.WriteReq_mshr_misses::total           81                       # number of WriteReq MSHR misses
system.cpu.dcache.WriteReq_mshr_miss_latency::.cpu.data      6528500                       # number of WriteReq MSHR miss cycles
system.cpu.dcache.WriteReq_mshr_miss_latency::total      6528500                       # number of WriteReq MSHR miss cycles
system.cpu.dcache.WriteReq_mshr_miss_rate::.cpu.data     0.000370                       # mshr miss rate for WriteReq accesses
system.cpu.dcache.WriteReq_mshr_miss_rate::total     0.000370                       # mshr miss rate for WriteReq accesses
system.cpu.dcache.WriteReq_avg_mshr_miss_latency::.cpu.data 80598.765432                       # average WriteReq mshr miss latency
system.cpu.dcache.WriteReq_avg_mshr_miss_latency::total 80598.765432                       # average WriteReq mshr miss latency
system.cpu.dcache.power_state.pwrStateResidencyTicks::UNDEFINED    325733000                       # Cumulative time (in ticks) in various power states
system.cpu.dcache.tags.tagsinuse           138.547867                       # Cycle average of tags in use
system.cpu.dcache.tags.total_refs              452652                       # Total number of references to valid blocks.
system.cpu.dcache.tags.sampled_refs               158                       # Sample count of references to valid blocks.
system.cpu.dcache.tags.avg_refs           2864.886076                       # Average number of references to valid blocks.
system.cpu.dcache.tags.warmup_cycle            232500                       # Cycle when the warmup percentage was hit.
system.cpu.dcache.tags.occ_blocks::.cpu.data   138.547867                       # Average occupied blocks per requestor
system.cpu.dcache.tags.occ_percent::.cpu.data     0.270601                       # Average percentage of cache occupancy
system.cpu.dcache.tags.occ_percent::total     0.270601                       # Average percentage of cache occupancy
system.cpu.dcache.tags.occ_task_id_blocks::1024          154                       # Occupied blocks per task id
system.cpu.dcache.tags.age_task_id_blocks_1024::0           10                       # Occupied blocks per task id
system.cpu.dcache.tags.age_task_id_blocks_1024::2          144                       # Occupied blocks per task id
system.cpu.dcache.tags.occ_task_id_percent::1024     0.300781                       # Percentage of cache occupancy per task id
system.cpu.dcache.tags.tag_accesses            905592                       # Number of tag accesses
system.cpu.dcache.tags.data_accesses           905592                       # Number of data accesses
system.cpu.dcache.tags.power_state.pwrStateResidencyTicks::UNDEFINED    325733000                       # Cumulative time (in ticks) in various power states
system.cpu.decode.idleCycles                   202265                       # Number of cycles decode is idle
system.cpu.decode.blockedCycles                 25908                       # Number of cycles decode is blocked
system.cpu.decode.runCycles                    380206                       # Number of cycles decode is running
system.cpu.decode.unblockCycles                  6057                       # Number of cycles decode is unblocking
system.cpu.decode.squashCycles                   4071                       # Number of cycles decode is squashing
system.cpu.decode.branchResolved               125880                       # Number of times decode resolved a  branch
system.cpu.decode.branchMispred                   808                       # Number of times decode detected a branch misprediction
system.cpu.decode.decodedInsts                2380194                       # Number of instructions handled by decode
system.cpu.decode.squashedInsts                  4605                       # Number of squashed instructions handled by decode
system.cpu.dtb.rdAccesses                      352528                       # TLB accesses on read requests
system.cpu.dtb.wrAccesses                      222706                       # TLB accesses on write requests
system.cpu.dtb.rdMisses                           356                       # TLB misses on read requests
system.cpu.dtb.wrMisses                            21                       # TLB misses on write requests
system.cpu.dtb.walker.power_state.pwrStateResidencyTicks::UNDEFINED    325733000                       # Cumulative time (in ticks) in various power states
system.cpu.dtb_walker_cache.blocked_cycles::no_mshrs            0                       # number of cycles access was blocked
system.cpu.dtb_walker_cache.blocked_cycles::no_targets            0                       # number of cycles access was blocked
system.cpu.dtb_walker_cache.blocked::no_mshrs            0                       # number of cycles access was blocked
system.cpu.dtb_walker_cache.blocked::no_targets            0                       # number of cycles access was blocked
system.cpu.dtb_walker_cache.avg_blocked_cycles::no_mshrs          nan                       # average number of cycles each access was blocked
system.cpu.dtb_walker_cache.avg_blocked_cycles::no_targets          nan                       # average number of cycles each access was blocked
system.cpu.dtb_walker_cache.replacements            0                       # number of replacements
system.cpu.dtb_walker_cache.power_state.pwrStateResidencyTicks::UNDEFINED    325733000                       # Cumulative time (in ticks) in various power states
system.cpu.dtb_walker_cache.tags.tagsinuse            0                       # Cycle average of tags in use
system.cpu.dtb_walker_cache.tags.total_refs            0                       # Total number of references to valid blocks.
system.cpu.dtb_walker_cache.tags.sampled_refs            0                       # Sample count of references to valid blocks.
system.cpu.dtb_walker_cache.tags.avg_refs          nan                       # Average number of references to valid blocks.
system.cpu.dtb_walker_cache.tags.warmup_cycle            0                       # Cycle when the warmup percentage was hit.
system.cpu.dtb_walker_cache.tags.tag_accesses            0                       # Number of tag accesses
system.cpu.dtb_walker_cache.tags.data_accesses            0                       # Number of data accesses
system.cpu.dtb_walker_cache.tags.power_state.pwrStateResidencyTicks::UNDEFINED    325733000                       # Cumulative time (in ticks) in various power states
system.cpu.fetch.icacheStallCycles             200451                       # Number of cycles fetch is stalled on an Icache miss
system.cpu.fetch.insts                        1202975                       # Number of instructions fetch has processed
system.cpu.fetch.branches                      267660                       # Number of branches that fetch encountered
system.cpu.fetch.predictedBranches             161867                       # Number of branches that fetch has predicted taken
system.cpu.fetch.cycles                        405867                       # Number of cycles fetch has run and was not squashing or blocked
system.cpu.fetch.squashCycles                    9742                       # Number of cycles fetch has spent squashing
system.cpu.fetch.miscStallCycles                  821                       # Number of cycles fetch has spent waiting on interrupts,or bad addresses, or out of MSHRs
system.cpu.fetch.pendingTrapStallCycles          6479                       # Number of stall cycles due to pending traps
system.cpu.fetch.pendingQuiesceStallCycles           18                       # Number of stall cycles due to pending quiesce instructions
system.cpu.fetch.cacheLines                    184548                       # Number of cache lines fetched
system.cpu.fetch.icacheSquashes                  1529                       # Number of outstanding Icache misses that were squashed
system.cpu.fetch.nisnDist::samples             618507                       # Number of instructions fetched each cycle (Total)
system.cpu.fetch.nisnDist::mean              3.886929                       # Number of instructions fetched each cycle (Total)
system.cpu.fetch.nisnDist::stdev             3.473432                       # Number of instructions fetched each cycle (Total)
system.cpu.fetch.nisnDist::underflows               0      0.00%      0.00% # Number of instructions fetched each cycle (Total)
system.cpu.fetch.nisnDist::0                   225757     36.50%     36.50% # Number of instructions fetched each cycle (Total)
system.cpu.fetch.nisnDist::1                    27292      4.41%     40.91% # Number of instructions fetched each cycle (Total)
system.cpu.fetch.nisnDist::2                    19257      3.11%     44.03% # Number of instructions fetched each cycle (Total)
system.cpu.fetch.nisnDist::3                    13299      2.15%     46.18% # Number of instructions fetched each cycle (Total)
system.cpu.fetch.nisnDist::4                    32222      5.21%     51.39% # Number of instructions fetched each cycle (Total)
system.cpu.fetch.nisnDist::5                    50385      8.15%     59.53% # Number of instructions fetched each cycle (Total)
system.cpu.fetch.nisnDist::6                    30162      4.88%     64.41% # Number of instructions fetched each cycle (Total)
system.cpu.fetch.nisnDist::7                    24459      3.95%     68.36% # Number of instructions fetched each cycle (Total)
system.cpu.fetch.nisnDist::8                   195674     31.64%    100.00% # Number of instructions fetched each cycle (Total)
system.cpu.fetch.nisnDist::overflows                0      0.00%    100.00% # Number of instructions fetched each cycle (Total)
system.cpu.fetch.nisnDist::min_value                0                       # Number of instructions fetched each cycle (Total)
system.cpu.fetch.nisnDist::max_value                8                       # Number of instructions fetched each cycle (Total)
system.cpu.fetch.nisnDist::total               618507                       # Number of instructions fetched each cycle (Total)
system.cpu.fetch.branchRate                  0.410857                       # Number of branch fetches per cycle
system.cpu.fetch.rate                        1.846563                       # Number of inst fetches per cycle
system.cpu.icache.demand_hits::.cpu.inst       183905                       # number of demand (read+write) hits
system.cpu.icache.demand_hits::total           183905                       # number of demand (read+write) hits
system.cpu.icache.overall_hits::.cpu.inst       183905                       # number of overall hits
system.cpu.icache.overall_hits::total          183905                       # number of overall hits
system.cpu.icache.demand_misses::.cpu.inst          643                       # number of demand (read+write) misses
system.cpu.icache.demand_misses::total            643                       # number of demand (read+write) misses
system.cpu.icache.overall_misses::.cpu.inst          643                       # number of overall misses
system.cpu.icache.overall_misses::total           643                       # number of overall misses
system.cpu.icache.demand_miss_latency::.cpu.inst     44430000                       # number of demand (read+write) miss cycles
system.cpu.icache.demand_miss_latency::total     44430000                       # number of demand (read+write) miss cycles
system.cpu.icache.overall_miss_latency::.cpu.inst     44430000                       # number of overall miss cycles
system.cpu.icache.overall_miss_latency::total     44430000                       # number of overall miss cycles
system.cpu.icache.demand_accesses::.cpu.inst       184548                       # number of demand (read+write) accesses
system.cpu.icache.demand_accesses::total       184548                       # number of demand (read+write) accesses
system.cpu.icache.overall_accesses::.cpu.inst       184548                       # number of overall (read+write) accesses
system.cpu.icache.overall_accesses::total       184548                       # number of overall (read+write) accesses
system.cpu.icache.demand_miss_rate::.cpu.inst     0.003484                       # miss rate for demand accesses
system.cpu.icache.demand_miss_rate::total     0.003484                       # miss rate for demand accesses
system.cpu.icache.overall_miss_rate::.cpu.inst     0.003484                       # miss rate for overall accesses
system.cpu.icache.overall_miss_rate::total     0.003484                       # miss rate for overall accesses
system.cpu.icache.demand_avg_miss_latency::.cpu.inst 69097.978227                       # average overall miss latency
system.cpu.icache.demand_avg_miss_latency::total 69097.978227                       # average overall miss latency
system.cpu.icache.overall_avg_miss_latency::.cpu.inst 69097.978227                       # average overall miss latency
system.cpu.icache.overall_avg_miss_latency::total 69097.978227                       # average overall miss latency
system.cpu.icache.blocked_cycles::no_mshrs          189                       # number of cycles access was blocked
system.cpu.icache.blocked_cycles::no_targets            0                       # number of cycles access was blocked
system.cpu.icache.blocked::no_mshrs                 2                       # number of cycles access was blocked
system.cpu.icache.blocked::no_targets               0                       # number of cycles access was blocked
system.cpu.icache.avg_blocked_cycles::no_mshrs    94.500000                       # average number of cycles each access was blocked
system.cpu.icache.avg_blocked_cycles::no_targets          nan                       # average number of cycles each access was blocked
system.cpu.icache.writebacks::.writebacks          147                       # number of writebacks
system.cpu.icache.writebacks::total               147                       # number of writebacks
system.cpu.icache.demand_mshr_hits::.cpu.inst          162                       # number of demand (read+write) MSHR hits
system.cpu.icache.demand_mshr_hits::total          162                       # number of demand (read+write) MSHR hits
system.cpu.icache.overall_mshr_hits::.cpu.inst          162                       # number of overall MSHR hits
system.cpu.icache.overall_mshr_hits::total          162                       # number of overall MSHR hits
system.cpu.icache.demand_mshr_misses::.cpu.inst          481                       # number of demand (read+write) MSHR misses
system.cpu.icache.demand_mshr_misses::total          481                       # number of demand (read+write) MSHR misses
system.cpu.icache.overall_mshr_misses::.cpu.inst          481                       # number of overall MSHR misses
system.cpu.icache.overall_mshr_misses::total          481                       # number of overall MSHR misses
system.cpu.icache.demand_mshr_miss_latency::.cpu.inst     34254500                       # number of demand (read+write) MSHR miss cycles
system.cpu.icache.demand_mshr_miss_latency::total     34254500                       # number of demand (read+write) MSHR miss cycles
system.cpu.icache.overall_mshr_miss_latency::.cpu.inst     34254500                       # number of overall MSHR miss cycles
system.cpu.icache.overall_mshr_miss_latency::total     34254500                       # number of overall MSHR miss cycles
system.cpu.icache.demand_mshr_miss_rate::.cpu.inst     0.002606                       # mshr miss rate for demand accesses
system.cpu.icache.demand_mshr_miss_rate::total     0.002606                       # mshr miss rate for demand accesses
system.cpu.icache.overall_mshr_miss_rate::.cpu.inst     0.002606                       # mshr miss rate for overall accesses
system.cpu.icache.overall_mshr_miss_rate::total     0.002606                       # mshr miss rate for overall accesses
system.cpu.icache.demand_avg_mshr_miss_latency::.cpu.inst 71215.176715                       # average overall mshr miss latency
system.cpu.icache.demand_avg_mshr_miss_latency::total 71215.176715                       # average overall mshr miss latency
system.cpu.icache.overall_avg_mshr_miss_latency::.cpu.inst 71215.176715                       # average overall mshr miss latency
system.cpu.icache.overall_avg_mshr_miss_latency::total 71215.176715                       # average overall mshr miss latency
system.cpu.icache.replacements                    147                       # number of replacements
system.cpu.icache.ReadReq_hits::.cpu.inst       183905                       # number of ReadReq hits
system.cpu.icache.ReadReq_hits::total          183905                       # number of ReadReq hits
system.cpu.icache.ReadReq_misses::.cpu.inst          643                       # number of ReadReq misses
system.cpu.icache.ReadReq_misses::total           643                       # number of ReadReq misses
system.cpu.icache.ReadReq_miss_latency::.cpu.inst     44430000                       # number of ReadReq miss cycles
system.cpu.icache.ReadReq_miss_latency::total     44430000                       # number of ReadReq miss cycles
system.cpu.icache.ReadReq_accesses::.cpu.inst       184548                       # number of ReadReq accesses(hits+misses)
system.cpu.icache.ReadReq_accesses::total       184548                       # number of ReadReq accesses(hits+misses)
system.cpu.icache.ReadReq_miss_rate::.cpu.inst     0.003484                       # miss rate for ReadReq accesses
system.cpu.icache.ReadReq_miss_rate::total     0.003484                       # miss rate for ReadReq accesses
system.cpu.icache.ReadReq_avg_miss_latency::.cpu.inst 69097.978227                       # average ReadReq miss latency
system.cpu.icache.ReadReq_avg_miss_latency::total 69097.978227                       # average ReadReq miss latency
system.cpu.icache.ReadReq_mshr_hits::.cpu.inst          162                       # number of ReadReq MSHR hits
system.cpu.icache.ReadReq_mshr_hits::total          162                       # number of ReadReq MSHR hits
system.cpu.icache.ReadReq_mshr_misses::.cpu.inst          481                       # number of ReadReq MSHR misses
system.cpu.icache.ReadReq_mshr_misses::total          481                       # number of ReadReq MSHR misses
system.cpu.icache.ReadReq_mshr_miss_latency::.cpu.inst     34254500                       # number of ReadReq MSHR miss cycles
system.cpu.icache.ReadReq_mshr_miss_latency::total     34254500                       # number of ReadReq MSHR miss cycles
system.cpu.icache.ReadReq_mshr_miss_rate::.cpu.inst     0.002606                       # mshr miss rate for ReadReq accesses
system.cpu.icache.ReadReq_mshr_miss_rate::total     0.002606                       # mshr miss rate for ReadReq accesses
system.cpu.icache.ReadReq_avg_mshr_miss_latency::.cpu.inst 71215.176715                       # average ReadReq mshr miss latency
system.cpu.icache.ReadReq_avg_mshr_miss_latency::total 71215.176715                       # average ReadReq mshr miss latency
system.cpu.icache.power_state.pwrStateResidencyTicks::UNDEFINED    325733000                       # Cumulative time (in ticks) in various power states
system.cpu.icache.tags.tagsinuse           300.595419                       # Cycle average of tags in use
system.cpu.icache.tags.total_refs              184385                       # Total number of references to valid blocks.
system.cpu.icache.tags.sampled_refs               480                       # Sample count of references to valid blocks.
system.cpu.icache.tags.avg_refs            384.135417                       # Average number of references to valid blocks.
system.cpu.icache.tags.warmup_cycle             82000                       # Cycle when the warmup percentage was hit.
system.cpu.icache.tags.occ_blocks::.cpu.inst   300.595419                       # Average occupied blocks per requestor
system.cpu.icache.tags.occ_percent::.cpu.inst     0.587100                       # Average percentage of cache occupancy
system.cpu.icache.tags.occ_percent::total     0.587100                       # Average percentage of cache occupancy
system.cpu.icache.tags.occ_task_id_blocks::1024          333                       # Occupied blocks per task id
system.cpu.icache.tags.age_task_id_blocks_1024::0           56                       # Occupied blocks per task id
system.cpu.icache.tags.age_task_id_blocks_1024::2          277                       # Occupied blocks per task id
system.cpu.icache.tags.occ_task_id_percent::1024     0.650391                       # Percentage of cache occupancy per task id
system.cpu.icache.tags.tag_accesses            369576                       # Number of tag accesses
system.cpu.icache.tags.data_accesses           369576                       # Number of data accesses
system.cpu.icache.tags.power_state.pwrStateResidencyTicks::UNDEFINED    325733000                       # Cumulative time (in ticks) in various power states
system.cpu.interrupts.clk_domain.clock           8000                       # Clock period in ticks
system.cpu.itb.rdAccesses                           0                       # TLB accesses on read requests
system.cpu.itb.wrAccesses                      185371                       # TLB accesses on write requests
system.cpu.itb.rdMisses                             0                       # TLB misses on read requests
system.cpu.itb.wrMisses                           865                       # TLB misses on write requests
system.cpu.itb.walker.power_state.pwrStateResidencyTicks::UNDEFINED    325733000                       # Cumulative time (in ticks) in various power states
system.cpu.itb_walker_cache.blocked_cycles::no_mshrs            0                       # number of cycles access was blocked
system.cpu.itb_walker_cache.blocked_cycles::no_targets            0                       # number of cycles access was blocked
system.cpu.itb_walker_cache.blocked::no_mshrs            0                       # number of cycles access was blocked
system.cpu.itb_walker_cache.blocked::no_targets            0                       # number of cycles access was blocked
system.cpu.itb_walker_cache.avg_blocked_cycles::no_mshrs          nan                       # average number of cycles each access was blocked
system.cpu.itb_walker_cache.avg_blocked_cycles::no_targets          nan                       # average number of cycles each access was blocked
system.cpu.itb_walker_cache.replacements            0                       # number of replacements
system.cpu.itb_walker_cache.power_state.pwrStateResidencyTicks::UNDEFINED    325733000                       # Cumulative time (in ticks) in various power states
system.cpu.itb_walker_cache.tags.tagsinuse            0                       # Cycle average of tags in use
system.cpu.itb_walker_cache.tags.total_refs            0                       # Total number of references to valid blocks.
system.cpu.itb_walker_cache.tags.sampled_refs            0                       # Sample count of references to valid blocks.
system.cpu.itb_walker_cache.tags.avg_refs          nan                       # Average number of references to valid blocks.
system.cpu.itb_walker_cache.tags.warmup_cycle            0                       # Cycle when the warmup percentage was hit.
system.cpu.itb_walker_cache.tags.tag_accesses            0                       # Number of tag accesses
system.cpu.itb_walker_cache.tags.data_accesses            0                       # Number of data accesses
system.cpu.itb_walker_cache.tags.power_state.pwrStateResidencyTicks::UNDEFINED    325733000                       # Cumulative time (in ticks) in various power states
system.cpu.lsq0.forwLoads                      118566                       # Number of loads that had data forwarded from stores
system.cpu.lsq0.squashedLoads                   17601                       # Number of loads squashed
system.cpu.lsq0.ignoredResponses                  142                       # Number of memory responses ignored because the instruction is squashed
system.cpu.lsq0.memOrderViolation                 103                       # Number of memory ordering violations
system.cpu.lsq0.squashedStores                  11441                       # Number of stores squashed
system.cpu.lsq0.rescheduledLoads                    0                       # Number of loads that were rescheduled
system.cpu.lsq0.blockedByCache                      4                       # Number of times an access to memory failed due to the cache being blocked
system.cpu.power_state.pwrStateResidencyTicks::ON    325733000                       # Cumulative time (in ticks) in various power states
system.cpu.rename.squashCycles                   4071                       # Number of cycles rename is squashing
system.cpu.rename.idleCycles                   206725                       # Number of cycles rename is idle
system.cpu.rename.blockCycles                   15045                       # Number of cycles rename is blocking
system.cpu.rename.serializeStallCycles            471                       # count of cycles rename stalledfor serializing inst
system.cpu.rename.runCycles                    381082                       # Number of cycles rename is running
system.cpu.rename.unblockCycles                 11113                       # Number of cycles rename is unblocking
system.cpu.rename.renamedInsts                2367372                       # Number of instructions processed by rename
system.cpu.rename.ROBFullEvents                    54                       # Number of times rename has blocked due to ROB full
system.cpu.rename.IQFullEvents                    327                       # Number of times rename has blocked due to IQ full
system.cpu.rename.LQFullEvents                   7070                       # Number of times rename has blocked due to LQ full
system.cpu.rename.SQFullEvents                   2818                       # Number of times rename has blocked due to SQ full
system.cpu.rename.renamedOperands             2637116                       # Number of destination operands rename has renamed
system.cpu.rename.lookups                     5904198                       # Number of register rename lookups that rename has made
system.cpu.rename.intLookups                  3552493                       # Number of integer rename lookups
system.cpu.rename.committedMaps               2471531                       # Number of HB maps that are committed
system.cpu.rename.undoneMaps                   165560                       # Number of HB maps that are undone due to squashing
system.cpu.rename.serializing                       7                       # count of serializing insts renamed
system.cpu.rename.tempSerializing                   6                       # count of temporary serializing insts renamed
system.cpu.rename.skidInsts                     20551                       # count of insts added to the skid buffer
system.cpu.rob.reads                          2780817                       # The number of ROB reads
system.cpu.rob.writes                         4704280                       # The number of ROB writes
system.cpu.thread0.numInsts                   1115694                       # Number of Instructions committed
system.cpu.thread0.numOps                     2219797                       # Number of Ops committed
system.cpu.thread0.numMemRefs                       0                       # Number of Memory References
system.cpu_clk_domain.clock                       500                       # Clock period in ticks
system.cpu_voltage_domain.voltage                   1                       # Voltage in Volts
system.l2.demand_hits::.cpu.inst                   16                       # number of demand (read+write) hits
system.l2.demand_hits::.cpu.data                    2                       # number of demand (read+write) hits
system.l2.demand_hits::total                       18                       # number of demand (read+write) hits
system.l2.overall_hits::.cpu.inst                  16                       # number of overall hits
system.l2.overall_hits::.cpu.data                   2                       # number of overall hits
system.l2.overall_hits::total                      18                       # number of overall hits
system.l2.demand_misses::.cpu.inst                465                       # number of demand (read+write) misses
system.l2.demand_misses::.cpu.data                156                       # number of demand (read+write) misses
system.l2.demand_misses::total                    621                       # number of demand (read+write) misses
system.l2.overall_misses::.cpu.inst               465                       # number of overall misses
system.l2.overall_misses::.cpu.data               156                       # number of overall misses
system.l2.overall_misses::total                   621                       # number of overall misses
system.l2.demand_miss_latency::.cpu.inst     33425500                       # number of demand (read+write) miss cycles
system.l2.demand_miss_latency::.cpu.data     12255500                       # number of demand (read+write) miss cycles
system.l2.demand_miss_latency::total         45681000                       # number of demand (read+write) miss cycles
system.l2.overall_miss_latency::.cpu.inst     33425500                       # number of overall miss cycles
system.l2.overall_miss_latency::.cpu.data     12255500                       # number of overall miss cycles
system.l2.overall_miss_latency::total        45681000                       # number of overall miss cycles
system.l2.demand_accesses::.cpu.inst              481                       # number of demand (read+write) accesses
system.l2.demand_accesses::.cpu.data              158                       # number of demand (read+write) accesses
system.l2.demand_accesses::total                  639                       # number of demand (read+write) accesses
system.l2.overall_accesses::.cpu.inst             481                       # number of overall (read+write) accesses
system.l2.overall_accesses::.cpu.data             158                       # number of overall (read+write) accesses
system.l2.overall_accesses::total                 639                       # number of overall (read+write) accesses
system.l2.demand_miss_rate::.cpu.inst        0.966736                       # miss rate for demand accesses
system.l2.demand_miss_rate::.cpu.data        0.987342                       # miss rate for demand accesses
system.l2.demand_miss_rate::total            0.971831                       # miss rate for demand accesses
system.l2.overall_miss_rate::.cpu.inst       0.966736                       # miss rate for overall accesses
system.l2.overall_miss_rate::.cpu.data       0.987342                       # miss rate for overall accesses
system.l2.overall_miss_rate::total           0.971831                       # miss rate for overall accesses
system.l2.demand_avg_miss_latency::.cpu.inst 71882.795699                       # average overall miss latency
system.l2.demand_avg_miss_latency::.cpu.data 78560.897436                       # average overall miss latency
system.l2.demand_avg_miss_latency::total 73560.386473                       # average overall miss latency
system.l2.overall_avg_miss_latency::.cpu.inst 71882.795699                       # average overall miss latency
system.l2.overall_avg_miss_latency::.cpu.data 78560.897436                       # average overall miss latency
system.l2.overall_avg_miss_latency::total 73560.386473                       # average overall miss latency
system.l2.blocked_cycles::no_mshrs                  0                       # number of cycles access was blocked
system.l2.blocked_cycles::no_targets                0                       # number of cycles access was blocked
system.l2.blocked::no_mshrs                         0                       # number of cycles access was blocked
system.l2.blocked::no_targets                       0                       # number of cycles access was blocked
system.l2.avg_blocked_cycles::no_mshrs            nan                       # average number of cycles each access was blocked
system.l2.avg_blocked_cycles::no_targets          nan                       # average number of cycles each access was blocked
[...]
system.mem_ctrls.dram.bw_total::.cpu.inst     91363172                       # Total bandwidth to/from this memory (bytes/s)
system.mem_ctrls.dram.bw_total::.cpu.data     30650870                       # Total bandwidth to/from this memory (bytes/s)
system.mem_ctrls.dram.bw_total::total       122014042                       # Total bandwidth to/from this memory (bytes/s)
system.mem_ctrls.dram.readBursts                  621                       # Number of DRAM read bursts
system.mem_ctrls.dram.writeBursts                   0                       # Number of DRAM write bursts
system.mem_ctrls.dram.perBankRdBursts::0           83                       # Per bank write bursts
system.mem_ctrls.dram.perBankRdBursts::1            7                       # Per bank write bursts
system.mem_ctrls.dram.perBankRdBursts::2           76                       # Per bank write bursts
system.mem_ctrls.dram.perBankRdBursts::3           73                       # Per bank write bursts
system.mem_ctrls.dram.perBankRdBursts::4           86                       # Per bank write bursts
system.mem_ctrls.dram.perBankRdBursts::5           29                       # Per bank write bursts
system.mem_ctrls.dram.perBankRdBursts::6           56                       # Per bank write bursts
system.mem_ctrls.dram.perBankRdBursts::7           25                       # Per bank write bursts
system.mem_ctrls.dram.perBankRdBursts::8           48                       # Per bank write bursts
system.mem_ctrls.dram.perBankRdBursts::9           43                       # Per bank write bursts
system.mem_ctrls.dram.perBankRdBursts::10           40                       # Per bank write bursts
system.mem_ctrls.dram.perBankRdBursts::11           24                       # Per bank write bursts
system.mem_ctrls.dram.perBankRdBursts::12           31                       # Per bank write bursts
system.mem_ctrls.dram.perBankRdBursts::13            0                       # Per bank write bursts
system.mem_ctrls.dram.perBankRdBursts::14            0                       # Per bank write bursts
system.mem_ctrls.dram.perBankRdBursts::15            0                       # Per bank write bursts
system.mem_ctrls.dram.perBankWrBursts::0            0                       # Per bank write bursts
system.mem_ctrls.dram.perBankWrBursts::1            0                       # Per bank write bursts
system.mem_ctrls.dram.perBankWrBursts::2            0                       # Per bank write bursts
system.mem_ctrls.dram.perBankWrBursts::3            0                       # Per bank write bursts
system.mem_ctrls.dram.perBankWrBursts::4            0                       # Per bank write bursts
system.mem_ctrls.dram.perBankWrBursts::5            0                       # Per bank write bursts
system.mem_ctrls.dram.perBankWrBursts::6            0                       # Per bank write bursts
system.mem_ctrls.dram.perBankWrBursts::7            0                       # Per bank write bursts
system.mem_ctrls.dram.perBankWrBursts::8            0                       # Per bank write bursts
system.mem_ctrls.dram.perBankWrBursts::9            0                       # Per bank write bursts
system.mem_ctrls.dram.perBankWrBursts::10            0                       # Per bank write bursts
system.mem_ctrls.dram.perBankWrBursts::11            0                       # Per bank write bursts
system.mem_ctrls.dram.perBankWrBursts::12            0                       # Per bank write bursts
system.mem_ctrls.dram.perBankWrBursts::13            0                       # Per bank write bursts
system.mem_ctrls.dram.perBankWrBursts::14            0                       # Per bank write bursts
system.mem_ctrls.dram.perBankWrBursts::15            0                       # Per bank write bursts
system.mem_ctrls.dram.totQLat                 5646500                       # Total ticks spent queuing
system.mem_ctrls.dram.totBusLat               3105000                       # Total ticks spent in databus transfers
system.mem_ctrls.dram.totMemAccLat           17290250                       # Total ticks spent from burst creation until serviced by the DRAM
system.mem_ctrls.dram.avgQLat                 9092.59                       # Average queueing delay per DRAM burst
system.mem_ctrls.dram.avgBusLat               5000.00                       # Average bus latency per DRAM burst
system.mem_ctrls.dram.avgMemAccLat           27842.59                       # Average memory access latency per DRAM burst
system.mem_ctrls.dram.readRowHits                 492                       # Number of row buffer hits during reads
system.mem_ctrls.dram.writeRowHits                  0                       # Number of row buffer hits during writes
system.mem_ctrls.dram.readRowHitRate            79.23                       # Row buffer hit rate for reads
system.mem_ctrls.dram.writeRowHitRate             nan                       # Row buffer hit rate for writes
system.mem_ctrls.dram.bytesPerActivate::samples          121                       # Bytes accessed per row activation
system.mem_ctrls.dram.bytesPerActivate::mean   314.181818                       # Bytes accessed per row activation
system.mem_ctrls.dram.bytesPerActivate::gmean   196.124481                       # Bytes accessed per row activation
system.mem_ctrls.dram.bytesPerActivate::stdev   310.361510                       # Bytes accessed per row activation
system.mem_ctrls.dram.bytesPerActivate::0-127           37     30.58%     30.58% # Bytes accessed per row activation
system.mem_ctrls.dram.bytesPerActivate::128-255           35     28.93%     59.50% # Bytes accessed per row activation
system.mem_ctrls.dram.bytesPerActivate::256-383           13     10.74%     70.25% # Bytes accessed per row activation
system.mem_ctrls.dram.bytesPerActivate::384-511            6      4.96%     75.21% # Bytes accessed per row activation
system.mem_ctrls.dram.bytesPerActivate::512-639            6      4.96%     80.17% # Bytes accessed per row activation
system.mem_ctrls.dram.bytesPerActivate::640-767            8      6.61%     86.78% # Bytes accessed per row activation
system.mem_ctrls.dram.bytesPerActivate::768-895            3      2.48%     89.26% # Bytes accessed per row activation
system.mem_ctrls.dram.bytesPerActivate::896-1023            3      2.48%     91.74% # Bytes accessed per row activation
system.mem_ctrls.dram.bytesPerActivate::1024-1151           10      8.26%    100.00% # Bytes accessed per row activation
system.mem_ctrls.dram.bytesPerActivate::total          121                       # Bytes accessed per row activation
system.mem_ctrls.dram.bytesRead                 39744                       # Total number of bytes read from DRAM
system.mem_ctrls.dram.bytesWritten                  0                       # Total number of bytes written to DRAM
system.mem_ctrls.dram.avgRdBW              122.014042                       # Average DRAM read bandwidth in MiBytes/s
system.mem_ctrls.dram.avgWrBW                       0                       # Average DRAM write bandwidth in MiBytes/s
system.mem_ctrls.dram.peakBW                 12800.00                       # Theoretical peak bandwidth in MiByte/s
system.mem_ctrls.dram.busUtil                    0.95                       # Data bus utilization in percentage
system.mem_ctrls.dram.busUtilRead                0.95                       # Data bus utilization in percentage for reads
system.mem_ctrls.dram.busUtilWrite               0.00                       # Data bus utilization in percentage for writes
system.mem_ctrls.dram.pageHitRate               79.23                       # Row buffer hit rate, read and write combined
system.mem_ctrls.dram.power_state.pwrStateResidencyTicks::UNDEFINED    325733000                       # Cumulative time (in ticks) in various power states
system.mem_ctrls.dram.rank0.actEnergy          678300                       # Energy for activate commands per rank (pJ)
system.mem_ctrls.dram.rank0.preEnergy          341550                       # Energy for precharge commands per rank (pJ)
system.mem_ctrls.dram.rank0.readEnergy        3105900                       # Energy for read commands per rank (pJ)
system.mem_ctrls.dram.rank0.writeEnergy             0                       # Energy for write commands per rank (pJ)
system.mem_ctrls.dram.rank0.refreshEnergy 25200240.000000                       # Energy for refresh commands per rank (pJ)
system.mem_ctrls.dram.rank0.actBackEnergy     28509690                       # Energy for active background per rank (pJ)
system.mem_ctrls.dram.rank0.preBackEnergy    101073600                       # Energy for precharge background per rank (pJ)
system.mem_ctrls.dram.rank0.actPowerDownEnergy            0                       # Energy for active power-down per rank (pJ)
system.mem_ctrls.dram.rank0.prePowerDownEnergy            0                       # Energy for precharge power-down per rank (pJ)
system.mem_ctrls.dram.rank0.selfRefreshEnergy            0                       # Energy for self refresh per rank (pJ)
system.mem_ctrls.dram.rank0.totalEnergy     158909280                       # Total energy per rank (pJ)
system.mem_ctrls.dram.rank0.averagePower   487.851338                       # Core power per rank (mW)
system.mem_ctrls.dram.rank0.totalIdleTime            0                       # Total Idle time Per DRAM Rank
system.mem_ctrls.dram.rank0.pwrStateTime::IDLE    262494500                       # Time in different power states
system.mem_ctrls.dram.rank0.pwrStateTime::REF     10660000                       # Time in different power states
system.mem_ctrls.dram.rank0.pwrStateTime::SREF            0                       # Time in different power states
system.mem_ctrls.dram.rank0.pwrStateTime::PRE_PDN            0                       # Time in different power states
system.mem_ctrls.dram.rank0.pwrStateTime::ACT     52578500                       # Time in different power states
system.mem_ctrls.dram.rank0.pwrStateTime::ACT_PDN            0                       # Time in different power states
system.mem_ctrls.dram.rank1.actEnergy          242760                       # Energy for activate commands per rank (pJ)
system.mem_ctrls.dram.rank1.preEnergy          117645                       # Energy for precharge commands per rank (pJ)
system.mem_ctrls.dram.rank1.readEnergy        1328040                       # Energy for read commands per rank (pJ)
system.mem_ctrls.dram.rank1.writeEnergy             0                       # Energy for write commands per rank (pJ)
system.mem_ctrls.dram.rank1.refreshEnergy 25200240.000000                       # Energy for refresh commands per rank (pJ)
system.mem_ctrls.dram.rank1.actBackEnergy     21718710                       # Energy for active background per rank (pJ)
system.mem_ctrls.dram.rank1.preBackEnergy    106792320                       # Energy for precharge background per rank (pJ)
system.mem_ctrls.dram.rank1.actPowerDownEnergy            0                       # Energy for active power-down per rank (pJ)
system.mem_ctrls.dram.rank1.prePowerDownEnergy            0                       # Energy for precharge power-down per rank (pJ)
system.mem_ctrls.dram.rank1.selfRefreshEnergy            0                       # Energy for self refresh per rank (pJ)
system.mem_ctrls.dram.rank1.totalEnergy     155399715                       # Total energy per rank (pJ)
system.mem_ctrls.dram.rank1.averagePower   477.076977                       # Core power per rank (mW)
system.mem_ctrls.dram.rank1.totalIdleTime            0                       # Total Idle time Per DRAM Rank
system.mem_ctrls.dram.rank1.pwrStateTime::IDLE    277471000                       # Time in different power states
system.mem_ctrls.dram.rank1.pwrStateTime::REF     10660000                       # Time in different power states
system.mem_ctrls.dram.rank1.pwrStateTime::SREF            0                       # Time in different power states
system.mem_ctrls.dram.rank1.pwrStateTime::PRE_PDN            0                       # Time in different power states
system.mem_ctrls.dram.rank1.pwrStateTime::ACT     37602000                       # Time in different power states
system.mem_ctrls.dram.rank1.pwrStateTime::ACT_PDN            0                       # Time in different power states
system.mem_ctrls.power_state.pwrStateResidencyTicks::UNDEFINED    325733000                       # Cumulative time (in ticks) in various power states
system.membus.trans_dist::ReadResp                540                       # Transaction distribution
system.membus.trans_dist::ReadExReq                81                       # Transaction distribution
system.membus.trans_dist::ReadExResp               81                       # Transaction distribution
system.membus.trans_dist::ReadSharedReq           540                       # Transaction distribution
system.membus.pkt_count_system.l2.mem_side_port::system.mem_ctrls.port         1242                       # Packet count per connected requestor and responder (bytes)
system.membus.pkt_count_system.l2.mem_side_port::total         1242                       # Packet count per connected requestor and responder (bytes)
system.membus.pkt_count::total                   1242                       # Packet count per connected requestor and responder (bytes)
system.membus.pkt_size_system.l2.mem_side_port::system.mem_ctrls.port        39744                       # Cumulative packet size per connected requestor and responder (bytes)
system.membus.pkt_size_system.l2.mem_side_port::total        39744                       # Cumulative packet size per connected requestor and responder (bytes)
system.membus.pkt_size::total                   39744                       # Cumulative packet size per connected requestor and responder (bytes)
system.membus.snoops                                0                       # Total snoops (count)
system.membus.snoopTraffic                          0                       # Total snoop traffic (bytes)
system.membus.snoop_fanout::samples               621                       # Request fanout histogram
system.membus.snoop_fanout::mean                    0                       # Request fanout histogram
system.membus.snoop_fanout::stdev                   0                       # Request fanout histogram
system.membus.snoop_fanout::underflows              0      0.00%      0.00% # Request fanout histogram
system.membus.snoop_fanout::0                     621    100.00%    100.00% # Request fanout histogram
system.membus.snoop_fanout::1                       0      0.00%    100.00% # Request fanout histogram
system.membus.snoop_fanout::overflows               0      0.00%    100.00% # Request fanout histogram
system.membus.snoop_fanout::min_value               0                       # Request fanout histogram
system.membus.snoop_fanout::max_value               0                       # Request fanout histogram
system.membus.snoop_fanout::total                 621                       # Request fanout histogram
system.membus.power_state.pwrStateResidencyTicks::UNDEFINED    325733000                       # Cumulative time (in ticks) in various power states
system.membus.reqLayer0.occupancy              310500                       # Layer occupancy (ticks)
system.membus.reqLayer0.utilization               0.1                       # Layer utilization (%)
system.membus.respLayer1.occupancy            1687750                       # Layer occupancy (ticks)
system.membus.respLayer1.utilization              0.5                       # Layer utilization (%)
system.tol2bus.trans_dist::ReadResp               557                       # Transaction distribution
system.tol2bus.trans_dist::WritebackDirty            1                       # Transaction distribution
system.tol2bus.trans_dist::WritebackClean          147                       # Transaction distribution
system.tol2bus.trans_dist::CleanEvict               3                       # Transaction distribution
system.tol2bus.trans_dist::ReadExReq               81                       # Transaction distribution
system.tol2bus.trans_dist::ReadExResp              81                       # Transaction distribution
system.tol2bus.trans_dist::ReadCleanReq           481                       # Transaction distribution
system.tol2bus.trans_dist::ReadSharedReq           77                       # Transaction distribution
system.tol2bus.pkt_count_system.cpu.icache.mem_side_port::system.l2.cpu_side_port         1108                       # Packet count per connected requestor and responder (bytes)
system.tol2bus.pkt_count_system.cpu.dcache.mem_side_port::system.l2.cpu_side_port          320                       # Packet count per connected requestor and responder (bytes)
system.tol2bus.pkt_count::total                  1428                       # Packet count per connected requestor and responder (bytes)
system.tol2bus.pkt_size_system.cpu.icache.mem_side_port::system.l2.cpu_side_port        40128                       # Cumulative packet size per connected requestor and responder (bytes)
system.tol2bus.pkt_size_system.cpu.dcache.mem_side_port::system.l2.cpu_side_port        10176                       # Cumulative packet size per connected requestor and responder (bytes)
system.tol2bus.pkt_size::total                  50304                       # Cumulative packet size per connected requestor and responder (bytes)
system.tol2bus.snoops                               0                       # Total snoops (count)
system.tol2bus.snoopTraffic                         0                       # Total snoop traffic (bytes)
system.tol2bus.snoop_fanout::samples              639                       # Request fanout histogram
system.tol2bus.snoop_fanout::mean            0.001565                       # Request fanout histogram
system.tol2bus.snoop_fanout::stdev           0.039559                       # Request fanout histogram
system.tol2bus.snoop_fanout::underflows             0      0.00%      0.00% # Request fanout histogram
system.tol2bus.snoop_fanout::0                    638     99.84%     99.84% # Request fanout histogram
system.tol2bus.snoop_fanout::1                      1      0.16%    100.00% # Request fanout histogram
system.tol2bus.snoop_fanout::2                      0      0.00%    100.00% # Request fanout histogram
system.tol2bus.snoop_fanout::3                      0      0.00%    100.00% # Request fanout histogram
system.tol2bus.snoop_fanout::4                      0      0.00%    100.00% # Request fanout histogram
system.tol2bus.snoop_fanout::overflows              0      0.00%    100.00% # Request fanout histogram
system.tol2bus.snoop_fanout::min_value              0                       # Request fanout histogram
system.tol2bus.snoop_fanout::max_value              1                       # Request fanout histogram
system.tol2bus.snoop_fanout::total                639                       # Request fanout histogram
system.tol2bus.power_state.pwrStateResidencyTicks::UNDEFINED    325733000                       # Cumulative time (in ticks) in various power states
system.tol2bus.reqLayer0.occupancy             543000                       # Layer occupancy (ticks)
system.tol2bus.reqLayer0.utilization              0.2                       # Layer utilization (%)
system.tol2bus.respLayer0.occupancy            720000                       # Layer occupancy (ticks)
system.tol2bus.respLayer0.utilization             0.2                       # Layer utilization (%)
system.tol2bus.respLayer1.occupancy            237000                       # Layer occupancy (ticks)
system.tol2bus.respLayer1.utilization             0.1                       # Layer utilization (%)
system.voltage_domain.voltage                       1                       # Voltage in Volts

---------- End Simulation Statistics   ----------
