
---------- Begin Simulation Statistics ----------
final_tick                                  325699000                       # Number of ticks from beginning of simulation (restored from checkpoints and never reset)
host_inst_rate                                 429478                       # Simulator instruction rate (inst/s)
host_mem_usage                                1171836                       # Number of bytes of host memory used
host_op_rate                                   854474                       # Simulator op (including micro ops) rate (op/s)
host_seconds                                     2.60                       # Real time elapsed on the host
host_tick_rate                              125372011                       # Simulator tick rate (ticks/s)
sim_freq                                 1000000000000                       # Frequency of simulated ticks
sim_insts                                     1115694                       # Number of instructions simulated
sim_ops                                       2219797                       # Number of ops (including micro ops) simulated
sim_seconds                                  0.000326                       # Number of seconds simulated
sim_ticks                                   325699000                       # Number of ticks simulated
system.cpu.cc_regfile_reads                   1207358                       # number of cc regfile reads
system.cpu.cc_regfile_writes                   742855                       # number of cc regfile writes
system.cpu.committedInsts                     1115694                       # Number of Instructions Simulated
system.cpu.committedOps                       2219797                       # Number of Ops (including micro ops) Simulated
system.cpu.cpi                               0.583851                       # CPI: Cycles Per Instruction
system.cpu.cpi_total                         0.583851                       # CPI: Total CPI of All Threads
system.cpu.idleCycles                           32929                       # Total number of cycles that the CPU has spent unscheduled due to idling
system.cpu.iew.branchMispredicts                 4708                       # Number of branch mispredicts detected at execute
system.cpu.iew.exec_branches                   252130                       # Number of branches executed
system.cpu.iew.exec_nop                             0                       # number of nop insts executed
system.cpu.iew.exec_rate                     3.513355                       # Inst execution rate
system.cpu.iew.exec_refs                       575294                       # number of memory reference insts executed
system.cpu.iew.exec_stores                     222727                       # Number of stores executed
system.cpu.iew.exec_swp                             0                       # number of swp insts executed
system.cpu.iew.iewBlockCycles                   14310                       # Number of cycles IEW is blocking
system.cpu.iew.iewDispLoadInsts                361299                       # Number of dispatched load instructions
system.cpu.iew.iewDispNonSpecInsts                 48                       # Number of dispatched non-speculative instructions
system.cpu.iew.iewDispSquashedInsts                50                       # Number of squashed instructions skipped by dispatch
system.cpu.iew.iewDispStoreInsts               230590                       # Number of dispatched store instructions
system.cpu.iew.iewDispatchedInsts             2343583                       # Number of instructions dispatched to IQ
system.cpu.iew.iewExecLoadInsts                352567                       # Number of load instructions executed
system.cpu.iew.iewExecSquashedInsts              6797                       # Number of squashed instructions skipped in execute
system.cpu.iew.iewExecutedInsts               2288596                       # Number of executed instructions
system.cpu.iew.iewIQFullEvents                      2                       # Number of times the IQ has become full, causing a stall
system.cpu.iew.iewIdleCycles                        0                       # Number of cycles IEW is idle
system.cpu.iew.iewLSQFullEvents                   201                       # Number of times the LSQ has become full, causing a stall
system.cpu.iew.iewSquashCycles                   4091                       # Number of cycles IEW is squashing
system.cpu.iew.iewUnblockCycles                   203                       # Number of cycles IEW is unblocking
system.cpu.iew.memOrderViolationEvents            103                       # Number of memory order violations
system.cpu.iew.predictedNotTakenIncorrect         2957                       # Number of branches that were predicted not taken incorrectly
system.cpu.iew.predictedTakenIncorrect           1751                       # Number of branches that were predicted taken incorrectly
system.cpu.iew.wb_consumers                   2884684                       # num instructions consuming a value
system.cpu.iew.wb_count                       2284609                       # cumulative count of insts written-back
system.cpu.iew.wb_fanout                     0.596558                       # average fanout of values written-back
system.cpu.iew.wb_producers                   1720881                       # num instructions producing a value
system.cpu.iew.wb_rate                       3.507234                       # insts written-back per cycle
system.cpu.iew.wb_sent                        2287296                       # cumulative count of insts sent to commit
system.cpu.int_regfile_reads                  3408072                       # number of integer regfile reads
system.cpu.int_regfile_writes                 1803289                       # number of integer regfile writes
system.cpu.ipc                               1.712766                       # IPC: Instructions Per Cycle
system.cpu.ipc_total                         1.712766                       # IPC: Total IPC of All Threads
system.cpu.iq.FU_type_0::No_OpClass             10677      0.47%      0.47% # Type of FU issued
system.cpu.iq.FU_type_0::IntAlu               1705680     74.31%     74.77% # Type of FU issued
system.cpu.iq.FU_type_0::IntMult                  912      0.04%     74.81% # Type of FU issued
system.cpu.iq.FU_type_0::IntDiv                    31      0.00%     74.82% # Type of FU issued
system.cpu.iq.FU_type_0::FloatAdd                   0      0.00%     74.82% # Type of FU issued
system.cpu.iq.FU_type_0::FloatCmp                   0      0.00%     74.82% # Type of FU issued
system.cpu.iq.FU_type_0::FloatCvt                   0      0.00%     74.82% # Type of FU issued
system.cpu.iq.FU_type_0::FloatMult                  0      0.00%     74.82% # Type of FU issued
system.cpu.iq.FU_type_0::FloatMultAcc               0      0.00%     74.82% # Type of FU issued
system.cpu.iq.FU_type_0::FloatDiv                   0      0.00%     74.82% # Type of FU issued
system.cpu.iq.FU_type_0::FloatMisc                  0      0.00%     74.82% # Type of FU issued
system.cpu.iq.FU_type_0::FloatSqrt                  0      0.00%     74.82% # Type of FU issued
system.cpu.iq.FU_type_0::SimdAdd                    0      0.00%     74.82% # Type of FU issued
system.cpu.iq.FU_type_0::SimdAddAcc                 0      0.00%     74.82% # Type of FU issued
system.cpu.iq.FU_type_0::SimdAlu                    0      0.00%     74.82% # Type of FU issued
system.cpu.iq.FU_type_0::SimdCmp                    0      0.00%     74.82% # Type of FU issued
system.cpu.iq.FU_type_0::SimdCvt                    0      0.00%     74.82% # Type of FU issued
system.cpu.iq.FU_type_0::SimdMisc                   0      0.00%     74.82% # Type of FU issued
system.cpu.iq.FU_type_0::SimdMult                   0      0.00%     74.82% # Type of FU issued
system.cpu.iq.FU_type_0::SimdMultAcc                0      0.00%     74.82% # Type of FU issued
system.cpu.iq.FU_type_0::SimdShift                  0      0.00%     74.82% # Type of FU issued
system.cpu.iq.FU_type_0::SimdShiftAcc               0      0.00%     74.82% # Type of FU issued
system.cpu.iq.FU_type_0::SimdDiv                    0      0.00%     74.82% # Type of FU issued
system.cpu.iq.FU_type_0::SimdSqrt                   0      0.00%     74.82% # Type of FU issued
system.cpu.iq.FU_type_0::SimdFloatAdd               0      0.00%     74.82% # Type of FU issued
system.cpu.iq.FU_type_0::SimdFloatAlu               0      0.00%     74.82% # Type of FU issued
system.cpu.iq.FU_type_0::SimdFloatCmp               0      0.00%     74.82% # Type of FU issued
system.cpu.iq.FU_type_0::SimdFloatCvt               0      0.00%     74.82% # Type of FU issued
system.cpu.iq.FU_type_0::SimdFloatDiv               0      0.00%     74.82% # Type of FU issued
system.cpu.iq.FU_type_0::SimdFloatMisc              0      0.00%     74.82% # Type of FU issued
system.cpu.iq.FU_type_0::SimdFloatMult              0      0.00%     74.82% # Type of FU issued
system.cpu.iq.FU_type_0::SimdFloatMultAcc            0      0.00%     74.82% # Type of FU issued
system.cpu.iq.FU_type_0::SimdFloatSqrt              0      0.00%     74.82% # Type of FU issued
system.cpu.iq.FU_type_0::SimdReduceAdd              0      0.00%     74.82% # Type of FU issued
system.cpu.iq.FU_type_0::SimdReduceAlu              0      0.00%     74.82% # Type of FU issued
system.cpu.iq.FU_type_0::SimdReduceCmp              0      0.00%     74.82% # Type of FU issued
system.cpu.iq.FU_type_0::SimdFloatReduceAdd            0      0.00%     74.82% # Type of FU issued
system.cpu.iq.FU_type_0::SimdFloatReduceCmp            0      0.00%     74.82% # Type of FU issued
system.cpu.iq.FU_type_0::SimdAes                    0      0.00%     74.82% # Type of FU issued
system.cpu.iq.FU_type_0::SimdAesMix                 0      0.00%     74.82% # Type of FU issued
system.cpu.iq.FU_type_0::SimdSha1Hash               0      0.00%     74.82% # Type of FU issued
system.cpu.iq.FU_type_0::SimdSha1Hash2              0      0.00%     74.82% # Type of FU issued
system.cpu.iq.FU_type_0::SimdSha256Hash             0      0.00%     74.82% # Type of FU issued
system.cpu.iq.FU_type_0::SimdSha256Hash2            0      0.00%     74.82% # Type of FU issued
system.cpu.iq.FU_type_0::SimdShaSigma2              0      0.00%     74.82% # Type of FU issued
system.cpu.iq.FU_type_0::SimdShaSigma3              0      0.00%     74.82% # Type of FU issued
system.cpu.iq.FU_type_0::SimdPredAlu                0      0.00%     74.82% # Type of FU issued
system.cpu.iq.FU_type_0::MemRead               354805     15.46%     90.27% # Type of FU issued
system.cpu.iq.FU_type_0::MemWrite              223288      9.73%    100.00% # Type of FU issued
system.cpu.iq.FU_type_0::FloatMemRead               0      0.00%    100.00% # Type of FU issued
system.cpu.iq.FU_type_0::FloatMemWrite              0      0.00%    100.00% # Type of FU issued
system.cpu.iq.FU_type_0::IprAccess                  0      0.00%    100.00% # Type of FU issued
system.cpu.iq.FU_type_0::InstPrefetch               0      0.00%    100.00% # Type of FU issued
system.cpu.iq.FU_type_0::total                2295393                       # Type of FU issued
system.cpu.iq.fp_alu_accesses                       0                       # Number of floating point alu accesses
system.cpu.iq.fp_inst_queue_reads                   0                       # Number of floating instruction queue reads
system.cpu.iq.fp_inst_queue_wakeup_accesses            0                       # Number of floating instruction queue wakeup accesses
system.cpu.iq.fp_inst_queue_writes                  0                       # Number of floating instruction queue writes
system.cpu.iq.fu_busy_cnt                       26016                       # FU busy when requested
system.cpu.iq.fu_busy_rate                   0.011334                       # FU busy rate (busy events/executed inst)
system.cpu.iq.fu_full::No_OpClass                   0      0.00%      0.00% # attempts to use FU when none available
system.cpu.iq.fu_full::IntAlu                   20473     78.69%     78.69% # attempts to use FU when none available
system.cpu.iq.fu_full::IntMult                      0      0.00%     78.69% # attempts to use FU when none available
system.cpu.iq.fu_full::IntDiv                       0      0.00%     78.69% # attempts to use FU when none available
system.cpu.iq.fu_full::FloatAdd                     0      0.00%     78.69% # attempts to use FU when none available
system.cpu.iq.fu_full::FloatCmp                     0      0.00%     78.69% # attempts to use FU when none available
system.cpu.iq.fu_full::FloatCvt                     0      0.00%     78.69% # attempts to use FU when none available
system.cpu.iq.fu_full::FloatMult                    0      0.00%     78.69% # attempts to use FU when none available
system.cpu.iq.fu_full::FloatMultAcc                 0      0.00%     78.69% # attempts to use FU when none available
system.cpu.iq.fu_full::FloatDiv                     0      0.00%     78.69% # attempts to use FU when none available
system.cpu.iq.fu_full::FloatMisc                    0      0.00%     78.69% # attempts to use FU when none available
system.cpu.iq.fu_full::FloatSqrt                    0      0.00%     78.69% # attempts to use FU when none available
system.cpu.iq.fu_full::SimdAdd                      0      0.00%     78.69% # attempts to use FU when none available
system.cpu.iq.fu_full::SimdAddAcc                   0      0.00%     78.69% # attempts to use FU when none available
system.cpu.iq.fu_full::SimdAlu                      0      0.00%     78.69% # attempts to use FU when none available
system.cpu.iq.fu_full::SimdCmp                      0      0.00%     78.69% # attempts to use FU when none available
system.cpu.iq.fu_full::SimdCvt                      0      0.00%     78.69% # attempts to use FU when none available
system.cpu.iq.fu_full::SimdMisc                     0      0.00%     78.69% # attempts to use FU when none available
system.cpu.iq.fu_full::SimdMult                     0      0.00%     78.69% # attempts to use FU when none available
system.cpu.iq.fu_full::SimdMultAcc                  0      0.00%     78.69% # attempts to use FU when none available
system.cpu.iq.fu_full::SimdShift                    0      0.00%     78.69% # attempts to use FU when none available
system.cpu.iq.fu_full::SimdShiftAcc                 0      0.00%     78.69% # attempts to use FU when none available
system.cpu.iq.fu_full::SimdDiv                      0      0.00%     78.69% # attempts to use FU when none available
system.cpu.iq.fu_full::SimdSqrt                     0      0.00%     78.69% # attempts to use FU when none available
system.cpu.iq.fu_full::SimdFloatAdd                 0      0.00%     78.69% # attempts to use FU when none available
system.cpu.iq.fu_full::SimdFloatAlu                 0      0.00%     78.69% # attempts to use FU when none available
system.cpu.iq.fu_full::SimdFloatCmp                 0      0.00%     78.69% # attempts to use FU when none available
system.cpu.iq.fu_full::SimdFloatCvt                 0      0.00%     78.69% # attempts to use FU when none available
system.cpu.iq.fu_full::SimdFloatDiv                 0      0.00%     78.69% # attempts to use FU when none available
system.cpu.iq.fu_full::SimdFloatMisc                0      0.00%     78.69% # attempts to use FU when none available
system.cpu.iq.fu_full::SimdFloatMult                0      0.00%     78.69% # attempts to use FU when none available
system.cpu.iq.fu_full::SimdFloatMultAcc             0      0.00%     78.69% # attempts to use FU when none available
system.cpu.iq.fu_full::SimdFloatSqrt                0      0.00%     78.69% # attempts to use FU when none available
system.cpu.iq.fu_full::SimdReduceAdd                0      0.00%     78.69% # attempts to use FU when none available
system.cpu.iq.fu_full::SimdReduceAlu                0      0.00%     78.69% # attempts to use FU when none available
system.cpu.iq.fu_full::SimdReduceCmp                0      0.00%     78.69% # attempts to use FU when none available
system.cpu.iq.fu_full::SimdFloatReduceAdd            0      0.00%     78.69% # attempts to use FU when none available
system.cpu.iq.fu_full::SimdFloatReduceCmp            0      0.00%     78.69% # attempts to use FU when none available
system.cpu.iq.fu_full::SimdAes                      0      0.00%     78.69% # attempts to use FU when none available
system.cpu.iq.fu_full::SimdAesMix                   0      0.00%     78.69% # attempts to use FU when none available
system.cpu.iq.fu_full::SimdSha1Hash                 0      0.00%     78.69% # attempts to use FU when none available
system.cpu.iq.fu_full::SimdSha1Hash2                0      0.00%     78.69% # attempts to use FU when none available
system.cpu.iq.fu_full::SimdSha256Hash               0      0.00%     78.69% # attempts to use FU when none available
system.cpu.iq.fu_full::SimdSha256Hash2              0      0.00%     78.69% # attempts to use FU when none available
system.cpu.iq.fu_full::SimdShaSigma2                0      0.00%     78.69% # attempts to use FU when none available
system.cpu.iq.fu_full::SimdShaSigma3                0      0.00%     78.69% # attempts to use FU when none available
system.cpu.iq.fu_full::SimdPredAlu                  0      0.00%     78.69% # attempts to use FU when none available
system.cpu.iq.fu_full::MemRead                   5501     21.14%     99.84% # attempts to use FU when none available
system.cpu.iq.fu_full::MemWrite                    42      0.16%    100.00% # attempts to use FU when none available
system.cpu.iq.fu_full::FloatMemRead                 0      0.00%    100.00% # attempts to use FU when none available
system.cpu.iq.fu_full::FloatMemWrite                0      0.00%    100.00% # attempts to use FU when none available
system.cpu.iq.fu_full::IprAccess                    0      0.00%    100.00% # attempts to use FU when none available
system.cpu.iq.fu_full::InstPrefetch                 0      0.00%    100.00% # attempts to use FU when none available
system.cpu.iq.int_alu_accesses                2310732                       # Number of integer alu accesses
system.cpu.iq.int_inst_queue_reads            5235490                       # Number of integer instruction queue reads
system.cpu.iq.int_inst_queue_wakeup_accesses      2284609                       # Number of integer instruction queue wakeup accesses
system.cpu.iq.int_inst_queue_writes           2467449                       # Number of integer instruction queue writes
system.cpu.iq.iqInstsAdded                    2343454                       # Number of instructions added to the IQ (excludes non-spec)
system.cpu.iq.iqInstsIssued                   2295393                       # Number of instructions issued
system.cpu.iq.iqNonSpecInstsAdded                 129                       # Number of non-speculative instructions added to the IQ
system.cpu.iq.iqSquashedInstsExamined          123764                       # Number of squashed instructions iterated over during squash; mainly for profiling
system.cpu.iq.iqSquashedInstsIssued               218                       # Number of squashed instructions issued
system.cpu.iq.iqSquashedNonSpecRemoved            127                       # Number of squashed non-spec instructions that were removed
system.cpu.iq.iqSquashedOperandsExamined       189875                       # Number of squashed operands that are examined and possibly removed from graph
system.cpu.iq.issued_per_cycle::samples        618470                       # Number of insts issued each cycle
system.cpu.iq.issued_per_cycle::mean         3.711406                       # Number of insts issued each cycle
system.cpu.iq.issued_per_cycle::stdev        2.119667                       # Number of insts issued each cycle
system.cpu.iq.issued_per_cycle::underflows            0      0.00%      0.00% # Number of insts issued each cycle
system.cpu.iq.issued_per_cycle::0               64396     10.41%     10.41% # Number of insts issued each cycle
system.cpu.iq.issued_per_cycle::1               35279      5.70%     16.12% # Number of insts issued each cycle
system.cpu.iq.issued_per_cycle::2               79981     12.93%     29.05% # Number of insts issued each cycle
system.cpu.iq.issued_per_cycle::3               97632     15.79%     44.83% # Number of insts issued each cycle
system.cpu.iq.issued_per_cycle::4              113492     18.35%     63.18% # Number of insts issued each cycle
system.cpu.iq.issued_per_cycle::5               91778     14.84%     78.02% # Number of insts issued each cycle
system.cpu.iq.issued_per_cycle::6               74399     12.03%     90.05% # Number of insts issued each cycle
system.cpu.iq.issued_per_cycle::7               44100      7.13%     97.18% # Number of insts issued each cycle
system.cpu.iq.issued_per_cycle::8               17413      2.82%    100.00% # Number of insts issued each cycle
system.cpu.iq.issued_per_cycle::overflows            0      0.00%    100.00% # Number of insts issued each cycle
system.cpu.iq.issued_per_cycle::min_value            0                       # Number of insts issued each cycle
system.cpu.iq.issued_per_cycle::max_value            8                       # Number of insts issued each cycle
system.cpu.iq.issued_per_cycle::total          618470                       # Number of insts issued each cycle
system.cpu.iq.rate                           3.523790                       # Inst issue rate
system.cpu.iq.vec_alu_accesses                      0                       # Number of vector alu accesses
system.cpu.iq.vec_inst_queue_reads                  0                       # Number of vector instruction queue reads
system.cpu.iq.vec_inst_queue_wakeup_accesses            0                       # Number of vector instruction queue wakeup accesses
system.cpu.iq.vec_inst_queue_writes                 0                       # Number of vector instruction queue writes
system.cpu.memDep0.conflictingLoads             58342                       # Number of conflicting loads.
system.cpu.memDep0.conflictingStores            28963                       # Number of conflicting stores.
system.cpu.memDep0.insertedLoads               361299                       # Number of loads inserted to the mem dependence unit.
system.cpu.memDep0.insertedStores              230590                       # Number of stores inserted to the mem dependence unit.
system.cpu.misc_regfile_reads                 1047026                       # number of misc regfile reads
system.cpu.misc_regfile_writes                      4                       # number of misc regfile writes
system.cpu.numCycles                           651399                       # number of cpu cycles simulated
system.cpu.numWorkItemsCompleted                    0                       # number of work items this cpu completed
system.cpu.numWorkItemsStarted                      0                       # number of work items this cpu started
system.cpu.timesIdled                             296                       # Number of times that the entire CPU went into an idle state and unscheduled itself
system.cpu.workload.numSyscalls                   138                       # Number of system calls
system.membus.snoop_filter.hit_multi_requests            0                       # Number of requests hitting in the snoop filter with multiple (>1) holders of the requested data.
system.membus.snoop_filter.hit_multi_snoops            0                       # Number of snoops hitting in the snoop filter with multiple (>1) holders of the requested data.
system.membus.snoop_filter.hit_single_requests            0                       # Number of requests hitting in the snoop filter with a single holder of the requested data.
system.membus.snoop_filter.hit_single_snoops            0                       # Number of snoops hitting in the snoop filter with a single holder of the requested data.
system.membus.snoop_filter.tot_requests           622                       # Total number of requests made to the snoop filter.
system.membus.snoop_filter.tot_snoops               0                       # Total number of snoops made to the snoop filter.
system.tol2bus.snoop_filter.hit_multi_requests            0                       # Number of requests hitting in the snoop filter with multiple (>1) holders of the requested data.
system.tol2bus.snoop_filter.hit_multi_snoops            0                       # Number of snoops hitting in the snoop filter with multiple (>1) holders of the requested data.
system.tol2bus.snoop_filter.hit_single_requests           53                       # Number of requests hitting in the snoop filter with a single holder of the requested data.
system.tol2bus.snoop_filter.hit_single_snoops            0                       # Number of snoops hitting in the snoop filter with a single holder of the requested data.
system.tol2bus.snoop_filter.tot_requests          678                       # Total number of requests made to the snoop filter.
system.tol2bus.snoop_filter.tot_snoops              0                       # Total number of snoops made to the snoop filter.
system.clk_domain.clock                           500                       # Clock period in ticks
system.cpu.branchPred.lookups                  267701                       # Number of BP lookups
system.cpu.branchPred.condPredicted            192045                       # Number of conditional branches predicted
system.cpu.branchPred.condIncorrect              3965                       # Number of conditional branches incorrect
system.cpu.branchPred.BTBLookups               127765                       # Number of BTB lookups
system.cpu.branchPred.BTBHits                  126684                       # Number of BTB hits
system.cpu.branchPred.BTBHitPct             99.153915                       # BTB Hit Percentage
system.cpu.branchPred.RASUsed                   29033                       # Number of times the RAS was used to get a target.
system.cpu.branchPred.RASIncorrect                146                       # Number of incorrect RAS predictions.
system.cpu.branchPred.indirectLookups            6402                       # Number of indirect predictor lookups.
system.cpu.branchPred.indirectHits               6166                       # Number of indirect target hits.
system.cpu.branchPred.indirectMisses              236                       # Number of indirect misses.
system.cpu.branchPred.indirectMispredicted           90                       # Number of mispredicted indirect branches.
system.cpu.commit.commitSquashedInsts          123525                       # The number of squashed insts skipped by commit
system.cpu.commit.commitNonSpecStalls               2                       # The number of times commit has been forced to stall to communicate backwards
system.cpu.commit.branchMispredicts              3857                       # The number of times a branch was mispredicted
system.cpu.commit.numCommittedDist::samples       600280                       # Number of insts commited each cycle
system.cpu.commit.numCommittedDist::mean     3.697936                       # Number of insts commited each cycle
system.cpu.commit.numCommittedDist::stdev     3.044170                       # Number of insts commited each cycle
system.cpu.commit.numCommittedDist::underflows            0      0.00%      0.00% # Number of insts commited each cycle
system.cpu.commit.numCommittedDist::0          106875     17.80%     17.80% # Number of insts commited each cycle
system.cpu.commit.numCommittedDist::1           91964     15.32%     33.12% # Number of insts commited each cycle
system.cpu.commit.numCommittedDist::2           55783      9.29%     42.42% # Number of insts commited each cycle
system.cpu.commit.numCommittedDist::3           97682     16.27%     58.69% # Number of insts commited each cycle
system.cpu.commit.numCommittedDist::4           37278      6.21%     64.90% # Number of insts commited each cycle
system.cpu.commit.numCommittedDist::5           22535      3.75%     68.65% # Number of insts commited each cycle
system.cpu.commit.numCommittedDist::6           16498      2.75%     71.40% # Number of insts commited each cycle
system.cpu.commit.numCommittedDist::7           10874      1.81%     73.21% # Number of insts commited each cycle
system.cpu.commit.numCommittedDist::8          160791     26.79%    100.00% # Number of insts commited each cycle
system.cpu.commit.numCommittedDist::overflows            0      0.00%    100.00% # Number of insts commited each cycle
system.cpu.commit.numCommittedDist::min_value            0                       # Number of insts commited each cycle
system.cpu.commit.numCommittedDist::max_value            8                       # Number of insts commited each cycle
system.cpu.commit.numCommittedDist::total       600280                       # Number of insts commited each cycle
system.cpu.commit.instsCommitted              1115694                       # Number of instructions committed
system.cpu.commit.opsCommitted                2219797                       # Number of ops (including micro ops) committed
system.cpu.commit.memRefs                      562770                       # Number of memory references committed
system.cpu.commit.loads                        343670                       # Number of loads committed
system.cpu.commit.amos                              0                       # Number of atomic instructions committed
system.cpu.commit.membars                           0                       # Number of memory barriers committed
system.cpu.commit.branches                     247447                       # Number of branches committed
system.cpu.commit.vector                            0                       # Number of committed Vector instructions.
system.cpu.commit.floating                          0                       # Number of committed floating point instructions.
system.cpu.commit.integer                     2210437                       # Number of committed integer instructions.
system.cpu.commit.functionCalls                 26463                       # Number of function calls committed.
system.cpu.commit.committedInstType_0::No_OpClass         8883      0.40%      0.40% # Class of committed instruction
system.cpu.commit.committedInstType_0::IntAlu      1647218     74.21%     74.61% # Class of committed instruction
system.cpu.commit.committedInstType_0::IntMult          905      0.04%     74.65% # Class of committed instruction
system.cpu.commit.committedInstType_0::IntDiv           21      0.00%     74.65% # Class of committed instruction
system.cpu.commit.committedInstType_0::FloatAdd            0      0.00%     74.65% # Class of committed instruction
system.cpu.commit.committedInstType_0::FloatCmp            0      0.00%     74.65% # Class of committed instruction
system.cpu.commit.committedInstType_0::FloatCvt            0      0.00%     74.65% # Class of committed instruction
system.cpu.commit.committedInstType_0::FloatMult            0      0.00%     74.65% # Class of committed instruction
system.cpu.commit.committedInstType_0::FloatMultAcc            0      0.00%     74.65% # Class of committed instruction
system.cpu.commit.committedInstType_0::FloatDiv            0      0.00%     74.65% # Class of committed instruction
system.cpu.commit.committedInstType_0::FloatMisc            0      0.00%     74.65% # Class of committed instruction
system.cpu.commit.committedInstType_0::FloatSqrt            0      0.00%     74.65% # Class of committed instruction
system.cpu.commit.committedInstType_0::SimdAdd            0      0.00%     74.65% # Class of committed instruction
system.cpu.commit.committedInstType_0::SimdAddAcc            0      0.00%     74.65% # Class of committed instruction
system.cpu.commit.committedInstType_0::SimdAlu            0      0.00%     74.65% # Class of committed instruction
system.cpu.commit.committedInstType_0::SimdCmp            0      0.00%     74.65% # Class of committed instruction
system.cpu.commit.committedInstType_0::SimdCvt            0      0.00%     74.65% # Class of committed instruction
system.cpu.commit.committedInstType_0::SimdMisc            0      0.00%     74.65% # Class of committed instruction
system.cpu.commit.committedInstType_0::SimdMult            0      0.00%     74.65% # Class of committed instruction
system.cpu.commit.committedInstType_0::SimdMultAcc            0      0.00%     74.65% # Class of committed instruction
system.cpu.commit.committedInstType_0::SimdShift            0      0.00%     74.65% # Class of committed instruction
system.cpu.commit.committedInstType_0::SimdShiftAcc            0      0.00%     74.65% # Class of committed instruction
system.cpu.commit.committedInstType_0::SimdDiv            0      0.00%     74.65% # Class of committed instruction
system.cpu.commit.committedInstType_0::SimdSqrt            0      0.00%     74.65% # Class of committed instruction
system.cpu.commit.committedInstType_0::SimdFloatAdd            0      0.00%     74.65% # Class of committed instruction
system.cpu.commit.committedInstType_0::SimdFloatAlu            0      0.00%     74.65% # Class of committed instruction
system.cpu.commit.committedInstType_0::SimdFloatCmp            0      0.00%     74.65% # Class of committed instruction
system.cpu.commit.committedInstType_0::SimdFloatCvt            0      0.00%     74.65% # Class of committed instruction
system.cpu.commit.committedInstType_0::SimdFloatDiv            0      0.00%     74.65% # Class of committed instruction
system.cpu.commit.committedInstType_0::SimdFloatMisc            0      0.00%     74.65% # Class of committed instruction
system.cpu.commit.committedInstType_0::SimdFloatMult            0      0.00%     74.65% # Class of committed instruction
system.cpu.commit.committedInstType_0::SimdFloatMultAcc            0      0.00%     74.65% # Class of committed instruction
system.cpu.commit.committedInstType_0::SimdFloatSqrt            0      0.00%     74.65% # Class of committed instruction
system.cpu.commit.committedInstType_0::SimdReduceAdd            0      0.00%     74.65% # Class of committed instruction
system.cpu.commit.committedInstType_0::SimdReduceAlu            0      0.00%     74.65% # Class of committed instruction
system.cpu.commit.committedInstType_0::SimdReduceCmp            0      0.00%     74.65% # Class of committed instruction
system.cpu.commit.committedInstType_0::SimdFloatReduceAdd            0      0.00%     74.65% # Class of committed instruction
system.cpu.commit.committedInstType_0::SimdFloatReduceCmp            0      0.00%     74.65% # Class of committed instruction
system.cpu.commit.committedInstType_0::SimdAes            0      0.00%     74.65% # Class of committed instruction
system.cpu.commit.committedInstType_0::SimdAesMix            0      0.00%     74.65% # Class of committed instruction
system.cpu.commit.committedInstType_0::SimdSha1Hash            0      0.00%     74.65% # Class of committed instruction
system.cpu.commit.committedInstType_0::SimdSha1Hash2            0      0.00%     74.65% # Class of committed instruction
system.cpu.commit.committedInstType_0::SimdSha256Hash            0      0.00%     74.65% # Class of committed instruction
system.cpu.commit.committedInstType_0::SimdSha256Hash2            0      0.00%     74.65% # Class of committed instruction
system.cpu.commit.committedInstType_0::SimdShaSigma2            0      0.00%     74.65% # Class of committed instruction
system.cpu.commit.committedInstType_0::SimdShaSigma3            0      0.00%     74.65% # Class of committed instruction
system.cpu.commit.committedInstType_0::SimdPredAlu            0      0.00%     74.65% # Class of committed instruction
system.cpu.commit.committedInstType_0::MemRead       343670     15.48%     90.13% # Class of committed instruction
system.cpu.commit.committedInstType_0::MemWrite       219100      9.87%    100.00% # Class of committed instruction
system.cpu.commit.committedInstType_0::FloatMemRead            0      0.00%    100.00% # Class of committed instruction
system.cpu.commit.committedInstType_0::FloatMemWrite            0      0.00%    100.00% # Class of committed instruction
system.cpu.commit.committedInstType_0::IprAccess            0      0.00%    100.00% # Class of committed instruction
system.cpu.commit.committedInstType_0::InstPrefetch            0      0.00%    100.00% # Class of committed instruction
system.cpu.commit.committedInstType_0::total      2219797                       # Class of committed instruction
system.cpu.commit.commitEligibleSamples        160791                       # number cycles where commit BW limit reached
system.cpu.dcache.demand_hits::.cpu.data       452492                       # number of demand (read+write) hits
system.cpu.dcache.demand_hits::total           452492                       # number of demand (read+write) hits
system.cpu.dcache.overall_hits::.cpu.data       452492                       # number of overall hits
system.cpu.dcache.overall_hits::total          452492                       # number of overall hits
system.cpu.dcache.demand_misses::.cpu.data          224                       # number of demand (read+write) misses
system.cpu.dcache.demand_misses::total            224                       # number of demand (read+write) misses
system.cpu.dcache.overall_misses::.cpu.data          224                       # number of overall misses
system.cpu.dcache.overall_misses::total           224                       # number of overall misses
system.cpu.dcache.demand_miss_latency::.cpu.data     16000999                       # number of demand (read+write) miss cycles
system.cpu.dcache.demand_miss_latency::total     16000999                       # number of demand (read+write) miss cycles
system.cpu.dcache.overall_miss_latency::.cpu.data     16000999                       # number of overall miss cycles
system.cpu.dcache.overall_miss_latency::total     16000999                       # number of overall miss cycles
system.cpu.dcache.demand_accesses::.cpu.data       452716                       # number of demand (read+write) accesses
system.cpu.dcache.demand_accesses::total       452716                       # number of demand (read+write) accesses
system.cpu.dcache.overall_accesses::.cpu.data       452716                       # number of overall (read+write) accesses
system.cpu.dcache.overall_accesses::total       452716                       # number of overall (read+write) accesses
system.cpu.dcache.demand_miss_rate::.cpu.data     0.000495                       # miss rate for demand accesses
system.cpu.dcache.demand_miss_rate::total     0.000495                       # miss rate for demand accesses
system.cpu.dcache.overall_miss_rate::.cpu.data     0.000495                       # miss rate for overall accesses
system.cpu.dcache.overall_miss_rate::total     0.000495                       # miss rate for overall accesses
system.cpu.dcache.demand_avg_miss_latency::.cpu.data 71433.031250                       # average overall miss latency
system.cpu.dcache.demand_avg_miss_latency::total 71433.031250                       # average overall miss latency
system.cpu.dcache.overall_avg_miss_latency::.cpu.data 71433.031250                       # average overall miss latency
system.cpu.dcache.overall_avg_miss_latency::total 71433.031250                       # average overall miss latency
system.cpu.dcache.blocked_cycles::no_mshrs          152                       # number of cycles access was blocked
system.cpu.dcache.blocked_cycles::no_targets            0                       # number of cycles access was blocked
system.cpu.dcache.blocked::no_mshrs                 4                       # number of cycles access was blocked
system.cpu.dcache.blocked::no_targets               0                       # number of cycles access was blocked
system.cpu.dcache.avg_blocked_cycles::no_mshrs           38                       # average number of cycles each access was blocked
system.cpu.dcache.avg_blocked_cycles::no_targets          nan                       # average number of cycles each access was blocked
system.cpu.dcache.demand_mshr_hits::.cpu.data           68                       # number of demand (read+write) MSHR hits
system.cpu.dcache.demand_mshr_hits::total           68                       # number of demand (read+write) MSHR hits
system.cpu.dcache.overall_mshr_hits::.cpu.data           68                       # number of overall MSHR hits
system.cpu.dcache.overall_mshr_hits::total           68                       # number of overall MSHR hits
system.cpu.dcache.demand_mshr_misses::.cpu.data          156                       # number of demand (read+write) MSHR misses
system.cpu.dcache.demand_mshr_misses::total          156                       # number of demand (read+write) MSHR misses
system.cpu.dcache.overall_mshr_misses::.cpu.data          156                       # number of overall MSHR misses
system.cpu.dcache.overall_mshr_misses::total          156                       # number of overall MSHR misses
system.cpu.dcache.demand_mshr_miss_latency::.cpu.data     12283500                       # number of demand (read+write) MSHR miss cycles
system.cpu.dcache.demand_mshr_miss_latency::total     12283500                       # number of demand (read+write) MSHR miss cycles
system.cpu.dcache.overall_mshr_miss_latency::.cpu.data     12283500                       # number of overall MSHR miss cycles
system.cpu.dcache.overall_mshr_miss_latency::total     12283500                       # number of overall MSHR miss cycles
system.cpu.dcache.demand_mshr_miss_rate::.cpu.data     0.000345                       # mshr miss rate for demand accesses
system.cpu.dcache.demand_mshr_miss_rate::total     0.000345                       # mshr miss rate for demand accesses
system.cpu.dcache.overall_mshr_miss_rate::.cpu.data     0.000345                       # mshr miss rate for overall accesses
system.cpu.dcache.overall_mshr_miss_rate::total     0.000345                       # mshr miss rate for overall accesses
system.cpu.dcache.demand_avg_mshr_miss_latency::.cpu.data 78740.384615                       # average overall mshr miss latency
system.cpu.dcache.demand_avg_mshr_miss_latency::total 78740.384615                       # average overall mshr miss latency
system.cpu.dcache.overall_avg_mshr_miss_latency::.cpu.data 78740.384615                       # average overall mshr miss latency
system.cpu.dcache.overall_avg_mshr_miss_latency::total 78740.384615                       # average overall mshr miss latency
system.cpu.dcache.replacements                      0                       # number of replacements
system.cpu.dcache.ReadReq_hits::.cpu.data       233475                       # number of ReadReq hits
system.cpu.dcache.ReadReq_hits::total          233475                       # number of ReadReq hits
system.cpu.dcache.ReadReq_misses::.cpu.data          141                       # number of ReadReq misses
system.cpu.dcache.ReadReq_misses::total           141                       # number of ReadReq misses
system.cpu.dcache.ReadReq_miss_latency::.cpu.data      9495000                       # number of ReadReq miss cycles
system.cpu.dcache.ReadReq_miss_latency::total      9495000                       # number of ReadReq miss cycles
system.cpu.dcache.ReadReq_accesses::.cpu.data       233616                       # number of ReadReq accesses(hits+misses)
system.cpu.dcache.ReadReq_accesses::total       233616                       # number of ReadReq accesses(hits+misses)
system.cpu.dcache.ReadReq_miss_rate::.cpu.data     0.000604                       # miss rate for ReadReq accesses
system.cpu.dcache.ReadReq_miss_rate::total     0.000604                       # miss rate for ReadReq accesses
system.cpu.dcache.ReadReq_avg_miss_latency::.cpu.data 67340.425532                       # average ReadReq miss latency
system.cpu.dcache.ReadReq_avg_miss_latency::total 67340.425532                       # average ReadReq miss latency
system.cpu.dcache.ReadReq_mshr_hits::.cpu.data           66                       # number of ReadReq MSHR hits
system.cpu.dcache.ReadReq_mshr_hits::total           66                       # number of ReadReq MSHR hits
system.cpu.dcache.ReadReq_mshr_misses::.cpu.data           75                       # number of ReadReq MSHR misses
system.cpu.dcache.ReadReq_mshr_misses::total           75                       # number of ReadReq MSHR misses
system.cpu.dcache.ReadReq_mshr_miss_latency::.cpu.data      5962000                       # number of ReadReq MSHR miss cycles
system.cpu.dcache.ReadReq_mshr_miss_latency::total      5962000                       # number of ReadReq MSHR miss cycles
system.cpu.dcache.ReadReq_mshr_miss_rate::.cpu.data     0.000321                       # mshr miss rate for ReadReq accesses
system.cpu.dcache.ReadReq_mshr_miss_rate::total     0.000321                       # mshr miss rate for ReadReq accesses
system.cpu.dcache.ReadReq_avg_mshr_miss_latency::.cpu.data 79493.333333                       # average ReadReq mshr miss latency
system.cpu.dcache.ReadReq_avg_mshr_miss_latency::total 79493.333333                       # average ReadReq mshr miss latency
system.cpu.dcache.WriteReq_hits::.cpu.data       219017                       # number of WriteReq hits
system.cpu.dcache.WriteReq_hits::total         219017                       # number of WriteReq hits
system.cpu.dcache.WriteReq_misses::.cpu.data           83                       # number of WriteReq misses
system.cpu.dcache.WriteReq_misses::total           83                       # number of WriteReq misses
system.cpu.dcache.WriteReq_miss_latency::.cpu.data      6505999                       # number of WriteReq miss cycles
system.cpu.dcache.WriteReq_miss_latency::total      6505999                       # number of WriteReq miss cycles
system.cpu.dcache.WriteReq_accesses::.cpu.data       219100                       # number of WriteReq accesses(hits+misses)
system.cpu.dcache.WriteReq_accesses::total       219100                       # number of WriteReq accesses(hits+misses)
system.cpu.dcache.WriteReq_miss_rate::.cpu.data     0.000379                       # miss rate for WriteReq accesses
system.cpu.dcache.WriteReq_miss_rate::total     0.000379                       # miss rate for WriteReq accesses
system.cpu.dcache.WriteReq_avg_miss_latency::.cpu.data 78385.530120                       # average WriteReq miss latency
system.cpu.dcache.WriteReq_avg_miss_latency::total 78385.530120                       # average WriteReq miss latency
system.cpu.dcache.WriteReq_mshr_hits::.cpu.data            2                       # number of WriteReq MSHR hits
system.cpu.dcache.WriteReq_mshr_hits::total            2                       # number of WriteReq MSHR hits
system.cpu.dcache.WriteReq_mshr_misses::.cpu.data           81                       # number of WriteReq MSHR misses
system.cpu.dcache.WriteReq_mshr_misses::total           81                       # number of WriteReq MSHR misses
system.cpu.dcache.WriteReq_mshr_miss_latency::.cpu.data      6321500                       # number of WriteReq MSHR miss cycles
system.cpu.dcache.WriteReq_mshr_miss_latency::total      6321500                       # number of WriteReq MSHR miss cycles
system.cpu.dcache.WriteReq_mshr_miss_rate::.cpu.data     0.000370                       # mshr miss rate for WriteReq accesses
system.cpu.dcache.WriteReq_mshr_miss_rate::total     0.000370                       # mshr miss rate for WriteReq accesses
system.cpu.dcache.WriteReq_avg_mshr_miss_latency::.cpu.data 78043.209877                       # average WriteReq mshr miss latency
system.cpu.dcache.WriteReq_avg_mshr_miss_latency::total 78043.209877                       # average WriteReq mshr miss latency
system.cpu.dcache.power_state.pwrStateResidencyTicks::UNDEFINED    325699000                       # Cumulative time (in ticks) in various power states
system.cpu.dcache.tags.tagsinuse           139.515011                       # Cycle average of tags in use
system.cpu.dcache.tags.total_refs              452648                       # Total number of references to valid blocks.
system.cpu.dcache.tags.sampled_refs               156                       # Sample count of references to valid blocks.
system.cpu.dcache.tags.avg_refs           2901.589744                       # Average number of references to valid blocks.
system.cpu.dcache.tags.warmup_cycle            232500                       # Cycle when the warmup percentage was hit.
system.cpu.dcache.tags.occ_blocks::.cpu.data   139.515011                       # Average occupied blocks per requestor
system.cpu.dcache.tags.occ_percent::.cpu.data     0.136245                       # Average percentage of cache occupancy
system.cpu.dcache.tags.occ_percent::total     0.136245                       # Average percentage of cache occupancy
system.cpu.dcache.tags.occ_task_id_blocks::1024          156                       # Occupied blocks per task id
system.cpu.dcache.tags.age_task_id_blocks_1024::0           10                       # Occupied blocks per task id
system.cpu.dcache.tags.age_task_id_blocks_1024::2          146                       # Occupied blocks per task id
system.cpu.dcache.tags.occ_task_id_percent::1024     0.152344                       # Percentage of cache occupancy per task id
system.cpu.dcache.tags.tag_accesses            905588                       # Number of tag accesses
system.cpu.dcache.tags.data_accesses           905588                       # Number of data accesses
system.cpu.dcache.tags.power_state.pwrStateResidencyTicks::UNDEFINED    325699000                       # Cumulative time (in ticks) in various power states
system.cpu.decode.idleCycles                   202303                       # Number of cycles decode is idle
system.cpu.decode.blockedCycles                 25737                       # Number of cycles decode is blocked
system.cpu.decode.runCycles                    380296                       # Number of cycles decode is running
system.cpu.decode.unblockCycles                  6043                       # Number of cycles decode is unblocking
system.cpu.decode.squashCycles                   4091                       # Number of cycles decode is squashing
system.cpu.decode.branchResolved               125893                       # Number of times decode resolved a  branch
system.cpu.decode.branchMispred                   808                       # Number of times decode detected a branch misprediction
system.cpu.decode.decodedInsts                2380593                       # Number of instructions handled by decode
system.cpu.decode.squashedInsts                  4605                       # Number of squashed instructions handled by decode
system.cpu.dtb.rdAccesses                      352547                       # TLB accesses on read requests
system.cpu.dtb.wrAccesses                      222727                       # TLB accesses on write requests
system.cpu.dtb.rdMisses                           356                       # TLB misses on read requests
system.cpu.dtb.wrMisses                            21                       # TLB misses on write requests
system.cpu.dtb.walker.power_state.pwrStateResidencyTicks::UNDEFINED    325699000                       # Cumulative time (in ticks) in various power states
system.cpu.dtb_walker_cache.blocked_cycles::no_mshrs            0                       # number of cycles access was blocked
system.cpu.dtb_walker_cache.blocked_cycles::no_targets            0                       # number of cycles access was blocked
system.cpu.dtb_walker_cache.blocked::no_mshrs            0                       # number of cycles access was blocked
system.cpu.dtb_walker_cache.blocked::no_targets            0                       # number of cycles access was blocked
system.cpu.dtb_walker_cache.avg_blocked_cycles::no_mshrs          nan                       # average number of cycles each access was blocked
system.cpu.dtb_walker_cache.avg_blocked_cycles::no_targets          nan                       # average number of cycles each access was blocked
system.cpu.dtb_walker_cache.replacements            0                       # number of replacements
system.cpu.dtb_walker_cache.power_state.pwrStateResidencyTicks::UNDEFINED    325699000                       # Cumulative time (in ticks) in various power states
system.cpu.dtb_walker_cache.tags.tagsinuse            0                       # Cycle average of tags in use
system.cpu.dtb_walker_cache.tags.total_refs            0                       # Total number of references to valid blocks.
system.cpu.dtb_walker_cache.tags.sampled_refs            0                       # Sample count of references to valid blocks.
system.cpu.dtb_walker_cache.tags.avg_refs          nan                       # Average number of references to valid blocks.
system.cpu.dtb_walker_cache.tags.warmup_cycle            0                       # Cycle when the warmup percentage was hit.
system.cpu.dtb_walker_cache.tags.tag_accesses            0                       # Number of tag accesses
system.cpu.dtb_walker_cache.tags.data_accesses            0                       # Number of data accesses
system.cpu.dtb_walker_cache.tags.power_state.pwrStateResidencyTicks::UNDEFINED    325699000                       # Cumulative time (in ticks) in various power states
system.cpu.fetch.icacheStallCycles             200266                       # Number of cycles fetch is stalled on an Icache miss
system.cpu.fetch.insts                        1203140                       # Number of instructions fetch has processed
system.cpu.fetch.branches                      267701                       # Number of branches that fetch encountered
system.cpu.fetch.predictedBranches             161883                       # Number of branches that fetch has predicted taken
system.cpu.fetch.cycles                        405884                       # Number of cycles fetch has run and was not squashing or blocked
system.cpu.fetch.squashCycles                    9782                       # Number of cycles fetch has spent squashing
system.cpu.fetch.miscStallCycles                  839                       # Number of cycles fetch has spent waiting on interrupts,or bad addresses, or out of MSHRs
system.cpu.fetch.pendingTrapStallCycles          6572                       # Number of stall cycles due to pending traps
system.cpu.fetch.pendingQuiesceStallCycles           18                       # Number of stall cycles due to pending quiesce instructions
system.cpu.fetch.cacheLines                    184568                       # Number of cache lines fetched
system.cpu.fetch.icacheSquashes                  1525                       # Number of outstanding Icache misses that were squashed
system.cpu.fetch.nisnDist::samples             618470                       # Number of instructions fetched each cycle (Total)
system.cpu.fetch.nisnDist::mean              3.887733                       # Number of instructions fetched each cycle (Total)
system.cpu.fetch.nisnDist::stdev             3.473372                       # Number of instructions fetched each cycle (Total)
system.cpu.fetch.nisnDist::underflows               0      0.00%      0.00% # Number of instructions fetched each cycle (Total)
system.cpu.fetch.nisnDist::0                   225668     36.49%     36.49% # Number of instructions fetched each cycle (Total)
system.cpu.fetch.nisnDist::1                    27292      4.41%     40.90% # Number of instructions fetched each cycle (Total)
system.cpu.fetch.nisnDist::2                    19260      3.11%     44.02% # Number of instructions fetched each cycle (Total)
system.cpu.fetch.nisnDist::3                    13302      2.15%     46.17% # Number of instructions fetched each cycle (Total)
system.cpu.fetch.nisnDist::4                    32226      5.21%     51.38% # Number of instructions fetched each cycle (Total)
system.cpu.fetch.nisnDist::5                    50387      8.15%     59.52% # Number of instructions fetched each cycle (Total)
system.cpu.fetch.nisnDist::6                    30166      4.88%     64.40% # Number of instructions fetched each cycle (Total)
system.cpu.fetch.nisnDist::7                    24459      3.95%     68.36% # Number of instructions fetched each cycle (Total)
system.cpu.fetch.nisnDist::8                   195710     31.64%    100.00% # Number of instructions fetched each cycle (Total)
system.cpu.fetch.nisnDist::overflows                0      0.00%    100.00% # Number of instructions fetched each cycle (Total)
system.cpu.fetch.nisnDist::min_value                0                       # Number of instructions fetched each cycle (Total)
system.cpu.fetch.nisnDist::max_value                8                       # Number of instructions fetched each cycle (Total)
system.cpu.fetch.nisnDist::total               618470                       # Number of instructions fetched each cycle (Total)
system.cpu.fetch.branchRate                  0.410963                       # Number of branch fetches per cycle
system.cpu.fetch.rate                        1.847009                       # Number of inst fetches per cycle
system.cpu.icache.demand_hits::.cpu.inst       183935                       # number of demand (read+write) hits
system.cpu.icache.demand_hits::total           183935                       # number of demand (read+write) hits
system.cpu.icache.overall_hits::.cpu.inst       183935                       # number of overall hits
system.cpu.icache.overall_hits::total          183935                       # number of overall hits
system.cpu.icache.demand_misses::.cpu.inst          633                       # number of demand (read+write) misses
system.cpu.icache.demand_misses::total            633                       # number of demand (read+write) misses
system.cpu.icache.overall_misses::.cpu.inst          633                       # number of overall misses
system.cpu.icache.overall_misses::total           633                       # number of overall misses
system.cpu.icache.demand_miss_latency::.cpu.inst     44566500                       # number of demand (read+write) miss cycles
system.cpu.icache.demand_miss_latency::total     44566500                       # number of demand (read+write) miss cycles
system.cpu.icache.overall_miss_latency::.cpu.inst     44566500                       # number of overall miss cycles
system.cpu.icache.overall_miss_latency::total     44566500                       # number of overall miss cycles
system.cpu.icache.demand_accesses::.cpu.inst       184568                       # number of demand (read+write) accesses
system.cpu.icache.demand_accesses::total       184568                       # number of demand (read+write) accesses
system.cpu.icache.overall_accesses::.cpu.inst       184568                       # number of overall (read+write) accesses
system.cpu.icache.overall_accesses::total       184568                       # number of overall (read+write) accesses
system.cpu.icache.demand_miss_rate::.cpu.inst     0.003430                       # miss rate for demand accesses
system.cpu.icache.demand_miss_rate::total     0.003430                       # miss rate for demand accesses
system.cpu.icache.overall_miss_rate::.cpu.inst     0.003430                       # miss rate for overall accesses
system.cpu.icache.overall_miss_rate::total     0.003430                       # miss rate for overall accesses
system.cpu.icache.demand_avg_miss_latency::.cpu.inst 70405.213270                       # average overall miss latency
system.cpu.icache.demand_avg_miss_latency::total 70405.213270                       # average overall miss latency
system.cpu.icache.overall_avg_miss_latency::.cpu.inst 70405.213270                       # average overall miss latency
system.cpu.icache.overall_avg_miss_latency::total 70405.213270                       # average overall miss latency
system.cpu.icache.blocked_cycles::no_mshrs          189                       # number of cycles access was blocked
system.cpu.icache.blocked_cycles::no_targets            0                       # number of cycles access was blocked
system.cpu.icache.blocked::no_mshrs                 2                       # number of cycles access was blocked
system.cpu.icache.blocked::no_targets               0                       # number of cycles access was blocked
system.cpu.icache.avg_blocked_cycles::no_mshrs    94.500000                       # average number of cycles each access was blocked
system.cpu.icache.avg_blocked_cycles::no_targets          nan                       # average number of cycles each access was blocked
system.cpu.icache.writebacks::.writebacks           52                       # number of writebacks
system.cpu.icache.writebacks::total                52                       # number of writebacks
system.cpu.icache.demand_mshr_hits::.cpu.inst          163                       # number of demand (read+write) MSHR hits
system.cpu.icache.demand_mshr_hits::total          163                       # number of demand (read+write) MSHR hits
system.cpu.icache.overall_mshr_hits::.cpu.inst          163                       # number of overall MSHR hits
system.cpu.icache.overall_mshr_hits::total          163                       # number of overall MSHR hits
system.cpu.icache.demand_mshr_misses::.cpu.inst          470                       # number of demand (read+write) MSHR misses
system.cpu.icache.demand_mshr_misses::total          470                       # number of demand (read+write) MSHR misses
system.cpu.icache.overall_mshr_misses::.cpu.inst          470                       # number of overall MSHR misses
system.cpu.icache.overall_mshr_misses::total          470                       # number of overall MSHR misses
system.cpu.icache.demand_mshr_miss_latency::.cpu.inst     34253000                       # number of demand (read+write) MSHR miss cycles
system.cpu.icache.demand_mshr_miss_latency::total     34253000                       # number of demand (read+write) MSHR miss cycles
system.cpu.icache.overall_mshr_miss_latency::.cpu.inst     34253000                       # number of overall MSHR miss cycles
system.cpu.icache.overall_mshr_miss_latency::total     34253000                       # number of overall MSHR miss cycles
system.cpu.icache.demand_mshr_miss_rate::.cpu.inst     0.002546                       # mshr miss rate for demand accesses
system.cpu.icache.demand_mshr_miss_rate::total     0.002546                       # mshr miss rate for demand accesses
system.cpu.icache.overall_mshr_miss_rate::.cpu.inst     0.002546                       # mshr miss rate for overall accesses
system.cpu.icache.overall_mshr_miss_rate::total     0.002546                       # mshr miss rate for overall accesses
system.cpu.icache.demand_avg_mshr_miss_latency::.cpu.inst 72878.723404                       # average overall mshr miss latency
system.cpu.icache.demand_avg_mshr_miss_latency::total 72878.723404                       # average overall mshr miss latency
system.cpu.icache.overall_avg_mshr_miss_latency::.cpu.inst 72878.723404                       # average overall mshr miss latency
system.cpu.icache.overall_avg_mshr_miss_latency::total 72878.723404                       # average overall mshr miss latency
system.cpu.icache.replacements                     52                       # number of replacements
system.cpu.icache.ReadReq_hits::.cpu.inst       183935                       # number of ReadReq hits
system.cpu.icache.ReadReq_hits::total          183935                       # number of ReadReq hits
system.cpu.icache.ReadReq_misses::.cpu.inst          633                       # number of ReadReq misses
system.cpu.icache.ReadReq_misses::total           633                       # number of ReadReq misses
system.cpu.icache.ReadReq_miss_latency::.cpu.inst     44566500                       # number of ReadReq miss cycles
system.cpu.icache.ReadReq_miss_latency::total     44566500                       # number of ReadReq miss cycles
system.cpu.icache.ReadReq_accesses::.cpu.inst       184568                       # number of ReadReq accesses(hits+misses)
system.cpu.icache.ReadReq_accesses::total       184568                       # number of ReadReq accesses(hits+misses)
system.cpu.icache.ReadReq_miss_rate::.cpu.inst     0.003430                       # miss rate for ReadReq accesses
system.cpu.icache.ReadReq_miss_rate::total     0.003430                       # miss rate for ReadReq accesses
system.cpu.icache.ReadReq_avg_miss_latency::.cpu.inst 70405.213270                       # average ReadReq miss latency
system.cpu.icache.ReadReq_avg_miss_latency::total 70405.213270                       # average ReadReq miss latency
system.cpu.icache.ReadReq_mshr_hits::.cpu.inst          163                       # number of ReadReq MSHR hits
system.cpu.icache.ReadReq_mshr_hits::total          163                       # number of ReadReq MSHR hits
system.cpu.icache.ReadReq_mshr_misses::.cpu.inst          470                       # number of ReadReq MSHR misses
system.cpu.icache.ReadReq_mshr_misses::total          470                       # number of ReadReq MSHR misses
system.cpu.icache.ReadReq_mshr_miss_latency::.cpu.inst     34253000                       # number of ReadReq MSHR miss cycles
system.cpu.icache.ReadReq_mshr_miss_latency::total     34253000                       # number of ReadReq MSHR miss cycles
system.cpu.icache.ReadReq_mshr_miss_rate::.cpu.inst     0.002546                       # mshr miss rate for ReadReq accesses
system.cpu.icache.ReadReq_mshr_miss_rate::total     0.002546                       # mshr miss rate for ReadReq accesses
system.cpu.icache.ReadReq_avg_mshr_miss_latency::.cpu.inst 72878.723404                       # average ReadReq mshr miss latency
system.cpu.icache.ReadReq_avg_mshr_miss_latency::total 72878.723404                       # average ReadReq mshr miss latency
system.cpu.icache.power_state.pwrStateResidencyTicks::UNDEFINED    325699000                       # Cumulative time (in ticks) in various power states
system.cpu.icache.tags.tagsinuse           357.894257                       # Cycle average of tags in use
system.cpu.icache.tags.total_refs              184404                       # Total number of references to valid blocks.
system.cpu.icache.tags.sampled_refs               469                       # Sample count of references to valid blocks.
system.cpu.icache.tags.avg_refs            393.185501                       # Average number of references to valid blocks.
system.cpu.icache.tags.warmup_cycle             82000                       # Cycle when the warmup percentage was hit.
system.cpu.icache.tags.occ_blocks::.cpu.inst   357.894257                       # Average occupied blocks per requestor
system.cpu.icache.tags.occ_percent::.cpu.inst     0.349506                       # Average percentage of cache occupancy
system.cpu.icache.tags.occ_percent::total     0.349506                       # Average percentage of cache occupancy
system.cpu.icache.tags.occ_task_id_blocks::1024          417                       # Occupied blocks per task id
system.cpu.icache.tags.age_task_id_blocks_1024::0           54                       # Occupied blocks per task id
system.cpu.icache.tags.age_task_id_blocks_1024::2          363                       # Occupied blocks per task id
system.cpu.icache.tags.occ_task_id_percent::1024     0.407227                       # Percentage of cache occupancy per task id
system.cpu.icache.tags.tag_accesses            369605                       # Number of tag accesses
system.cpu.icache.tags.data_accesses           369605                       # Number of data accesses
system.cpu.icache.tags.power_state.pwrStateResidencyTicks::UNDEFINED    325699000                       # Cumulative time (in ticks) in various power states
system.cpu.interrupts.clk_domain.clock           8000                       # Clock period in ticks
system.cpu.itb.rdAccesses                           0                       # TLB accesses on read requests
system.cpu.itb.wrAccesses                      185409                       # TLB accesses on write requests
system.cpu.itb.rdMisses                             0                       # TLB misses on read requests
system.cpu.itb.wrMisses                           883                       # TLB misses on write requests
system.cpu.itb.walker.power_state.pwrStateResidencyTicks::UNDEFINED    325699000                       # Cumulative time (in ticks) in various power states
system.cpu.itb_walker_cache.blocked_cycles::no_mshrs            0                       # number of cycles access was blocked
system.cpu.itb_walker_cache.blocked_cycles::no_targets            0                       # number of cycles access was blocked
system.cpu.itb_walker_cache.blocked::no_mshrs            0                       # number of cycles access was blocked
system.cpu.itb_walker_cache.blocked::no_targets            0                       # number of cycles access was blocked
system.cpu.itb_walker_cache.avg_blocked_cycles::no_mshrs          nan                       # average number of cycles each access was blocked
system.cpu.itb_walker_cache.avg_blocked_cycles::no_targets          nan                       # average number of cycles each access was blocked
system.cpu.itb_walker_cache.replacements            0                       # number of replacements
system.cpu.itb_walker_cache.power_state.pwrStateResidencyTicks::UNDEFINED    325699000                       # Cumulative time (in ticks) in various power states
system.cpu.itb_walker_cache.tags.tagsinuse            0                       # Cycle average of tags in use
system.cpu.itb_walker_cache.tags.total_refs            0                       # Total number of references to valid blocks.
system.cpu.itb_walker_cache.tags.sampled_refs            0                       # Sample count of references to valid blocks.
system.cpu.itb_walker_cache.tags.avg_refs          nan                       # Average number of references to valid blocks.
system.cpu.itb_walker_cache.tags.warmup_cycle            0                       # Cycle when the warmup percentage was hit.
system.cpu.itb_walker_cache.tags.tag_accesses            0                       # Number of tag accesses
system.cpu.itb_walker_cache.tags.data_accesses            0                       # Number of data accesses
system.cpu.itb_walker_cache.tags.power_state.pwrStateResidencyTicks::UNDEFINED    325699000                       # Cumulative time (in ticks) in various power states
system.cpu.lsq0.forwLoads                      118586                       # Number of loads that had data forwarded from stores
system.cpu.lsq0.squashedLoads                   17622                       # Number of loads squashed
system.cpu.lsq0.ignoredResponses                  144                       # Number of memory responses ignored because the instruction is squashed
system.cpu.lsq0.memOrderViolation                 103                       # Number of memory ordering violations
system.cpu.lsq0.squashedStores                  11485                       # Number of stores squashed
system.cpu.lsq0.rescheduledLoads                    0                       # Number of loads that were rescheduled
system.cpu.lsq0.blockedByCache                      4                       # Number of times an access to memory failed due to the cache being blocked
system.cpu.power_state.pwrStateResidencyTicks::ON    325699000                       # Cumulative time (in ticks) in various power states
system.cpu.rename.squashCycles                   4091                       # Number of cycles rename is squashing
system.cpu.rename.idleCycles                   206770                       # Number of cycles rename is idle
system.cpu.rename.blockCycles                   14589                       # Number of cycles rename is blocking
system.cpu.rename.serializeStallCycles            471                       # count of cycles rename stalledfor serializing inst
system.cpu.rename.runCycles                    381169                       # Number of cycles rename is running
system.cpu.rename.unblockCycles                 11380                       # Number of cycles rename is unblocking
system.cpu.rename.renamedInsts                2367703                       # Number of instructions processed by rename
system.cpu.rename.ROBFullEvents                     5                       # Number of times rename has blocked due to ROB full
system.cpu.rename.IQFullEvents                    336                       # Number of times rename has blocked due to IQ full
system.cpu.rename.LQFullEvents                   7356                       # Number of times rename has blocked due to LQ full
system.cpu.rename.SQFullEvents                   2842                       # Number of times rename has blocked due to SQ full
system.cpu.rename.renamedOperands             2637441                       # Number of destination operands rename has renamed
system.cpu.rename.lookups                     5904939                       # Number of register rename lookups that rename has made
system.cpu.rename.intLookups                  3552978                       # Number of integer rename lookups
system.cpu.rename.committedMaps               2471531                       # Number of HB maps that are committed
system.cpu.rename.undoneMaps                   165885                       # Number of HB maps that are undone due to squashing
system.cpu.rename.serializing                       7                       # count of serializing insts renamed
system.cpu.rename.tempSerializing                   6                       # count of temporary serializing insts renamed
system.cpu.rename.skidInsts                     20561                       # count of insts added to the skid buffer
system.cpu.rob.reads                          2780978                       # The number of ROB reads
system.cpu.rob.writes                         4704882                       # The number of ROB writes
system.cpu.thread0.numInsts                   1115694                       # Number of Instructions committed
system.cpu.thread0.numOps                     2219797                       # Number of Ops committed
system.cpu.thread0.numMemRefs                       0                       # Number of Memory References
system.cpu_clk_domain.clock                       500                       # Clock period in ticks
system.cpu_voltage_domain.voltage                   1                       # Voltage in Volts
system.l2.demand_hits::.cpu.inst                    4                       # number of demand (read+write) hits
system.l2.demand_hits::total                        4                       # number of demand (read+write) hits
system.l2.overall_hits::.cpu.inst                   4                       # number of overall hits
system.l2.overall_hits::total                       4                       # number of overall hits
system.l2.demand_misses::.cpu.inst                466                       # number of demand (read+write) misses
system.l2.demand_misses::.cpu.data                156                       # number of demand (read+write) misses
system.l2.demand_misses::total                    622                       # number of demand (read+write) misses
system.l2.overall_misses::.cpu.inst               466                       # number of overall misses
system.l2.overall_misses::.cpu.data               156                       # number of overall misses
system.l2.overall_misses::total                   622                       # number of overall misses
system.l2.demand_miss_latency::.cpu.inst     33502500                       # number of demand (read+write) miss cycles
system.l2.demand_miss_latency::.cpu.data     12048000                       # number of demand (read+write) miss cycles
system.l2.demand_miss_latency::total         45550500                       # number of demand (read+write) miss cycles
system.l2.overall_miss_latency::.cpu.inst     33502500                       # number of overall miss cycles
system.l2.overall_miss_latency::.cpu.data     12048000                       # number of overall miss cycles
system.l2.overall_miss_latency::total        45550500                       # number of overall miss cycles
system.l2.demand_accesses::.cpu.inst              470                       # number of demand (read+write) accesses
system.l2.demand_accesses::.cpu.data              156                       # number of demand (read+write) accesses
system.l2.demand_accesses::total                  626                       # number of demand (read+write) accesses
system.l2.overall_accesses::.cpu.inst             470                       # number of overall (read+write) accesses
system.l2.overall_accesses::.cpu.data             156                       # number of overall (read+write) accesses
system.l2.overall_accesses::total                 626                       # number of overall (read+write) accesses
system.l2.demand_miss_rate::.cpu.inst        0.991489                       # miss rate for demand accesses
system.l2.demand_miss_rate::.cpu.data               1                       # miss rate for demand accesses
system.l2.demand_miss_rate::total            0.993610                       # miss rate for demand accesses
system.l2.overall_miss_rate::.cpu.inst       0.991489                       # miss rate for overall accesses
system.l2.overall_miss_rate::.cpu.data              1                       # miss rate for overall accesses
system.l2.overall_miss_rate::total           0.993610                       # miss rate for overall accesses
system.l2.demand_avg_miss_latency::.cpu.inst 71893.776824                       # average overall miss latency
system.l2.demand_avg_miss_latency::.cpu.data 77230.769231                       # average overall miss latency
system.l2.demand_avg_miss_latency::total 73232.315113                       # average overall miss latency
system.l2.overall_avg_miss_latency::.cpu.inst 71893.776824                       # average overall miss latency
system.l2.overall_avg_miss_latency::.cpu.data 77230.769231                       # average overall miss latency
system.l2.overall_avg_miss_latency::total 73232.315113                       # average overall miss latency
system.l2.blocked_cycles::no_mshrs                  0                       # number of cycles access was blocked
system.l2.blocked_cycles::no_targets                0                       # number of cycles access was blocked
system.l2.blocked::no_mshrs                         0                       # number of cycles access was blocked
system.l2.blocked::no_targets                       0                       # number of cycles access was blocked
system.l2.avg_blocked_cycles::no_mshrs            nan                       # average number of cycles each access was blocked
system.l2.avg_blocked_cycles::no_targets          nan                       # average number of cycles each access was blocked
system.l2.demand_mshr_misses::.cpu.inst           466                       # number of demand (read+write) MSHR misses
system.l2.demand_mshr_misses::.cpu.data           156                       # number of demand (read+write) MSHR misses
system.l2.demand_mshr_misses::total               622                       # number of demand (read+write) MSHR misses
system.l2.overall_mshr_misses::.cpu.inst          466                       # number of overall MSHR misses
[...]
system.mem_ctrls.dram.bw_inst_read::.cpu.inst     91569210                       # Instruction read bandwidth from this memory (bytes/s)
system.mem_ctrls.dram.bw_inst_read::total     91569210                       # Instruction read bandwidth from this memory (bytes/s)
system.mem_ctrls.dram.bw_total::.cpu.inst     91569210                       # Total bandwidth to/from this memory (bytes/s)
system.mem_ctrls.dram.bw_total::.cpu.data     30654070                       # Total bandwidth to/from this memory (bytes/s)
system.mem_ctrls.dram.bw_total::total       122223280                       # Total bandwidth to/from this memory (bytes/s)
system.mem_ctrls.dram.readBursts                  622                       # Number of DRAM read bursts
system.mem_ctrls.dram.writeBursts                   0                       # Number of DRAM write bursts
system.mem_ctrls.dram.perBankRdBursts::0           83                       # Per bank write bursts
system.mem_ctrls.dram.perBankRdBursts::1            7                       # Per bank write bursts
system.mem_ctrls.dram.perBankRdBursts::2           76                       # Per bank write bursts
system.mem_ctrls.dram.perBankRdBursts::3           73                       # Per bank write bursts
system.mem_ctrls.dram.perBankRdBursts::4           86                       # Per bank write bursts
system.mem_ctrls.dram.perBankRdBursts::5           29                       # Per bank write bursts
system.mem_ctrls.dram.perBankRdBursts::6           56                       # Per bank write bursts
system.mem_ctrls.dram.perBankRdBursts::7           26                       # Per bank write bursts
system.mem_ctrls.dram.perBankRdBursts::8           48                       # Per bank write bursts
system.mem_ctrls.dram.perBankRdBursts::9           43                       # Per bank write bursts
system.mem_ctrls.dram.perBankRdBursts::10           40                       # Per bank write bursts
system.mem_ctrls.dram.perBankRdBursts::11           24                       # Per bank write bursts
system.mem_ctrls.dram.perBankRdBursts::12           31                       # Per bank write bursts
system.mem_ctrls.dram.perBankRdBursts::13            0                       # Per bank write bursts
system.mem_ctrls.dram.perBankRdBursts::14            0                       # Per bank write bursts
system.mem_ctrls.dram.perBankRdBursts::15            0                       # Per bank write bursts
system.mem_ctrls.dram.perBankWrBursts::0            0                       # Per bank write bursts
system.mem_ctrls.dram.perBankWrBursts::1            0                       # Per bank write bursts
system.mem_ctrls.dram.perBankWrBursts::2            0                       # Per bank write bursts
system.mem_ctrls.dram.perBankWrBursts::3            0                       # Per bank write bursts
system.mem_ctrls.dram.perBankWrBursts::4            0                       # Per bank write bursts
system.mem_ctrls.dram.perBankWrBursts::5            0                       # Per bank write bursts
system.mem_ctrls.dram.perBankWrBursts::6            0                       # Per bank write bursts
system.mem_ctrls.dram.perBankWrBursts::7            0                       # Per bank write bursts
system.mem_ctrls.dram.perBankWrBursts::8            0                       # Per bank write bursts
system.mem_ctrls.dram.perBankWrBursts::9            0                       # Per bank write bursts
system.mem_ctrls.dram.perBankWrBursts::10            0                       # Per bank write bursts
system.mem_ctrls.dram.perBankWrBursts::11            0                       # Per bank write bursts
system.mem_ctrls.dram.perBankWrBursts::12            0                       # Per bank write bursts
system.mem_ctrls.dram.perBankWrBursts::13            0                       # Per bank write bursts
system.mem_ctrls.dram.perBankWrBursts::14            0                       # Per bank write bursts
system.mem_ctrls.dram.perBankWrBursts::15            0                       # Per bank write bursts
system.mem_ctrls.dram.totQLat                 5515750                       # Total ticks spent queuing
system.mem_ctrls.dram.totBusLat               3110000                       # Total ticks spent in databus transfers
system.mem_ctrls.dram.totMemAccLat           17178250                       # Total ticks spent from burst creation until serviced by the DRAM
system.mem_ctrls.dram.avgQLat                 8867.77                       # Average queueing delay per DRAM burst
system.mem_ctrls.dram.avgBusLat               5000.00                       # Average bus latency per DRAM burst
system.mem_ctrls.dram.avgMemAccLat           27617.77                       # Average memory access latency per DRAM burst
system.mem_ctrls.dram.readRowHits                 493                       # Number of row buffer hits during reads
system.mem_ctrls.dram.writeRowHits                  0                       # Number of row buffer hits during writes
system.mem_ctrls.dram.readRowHitRate            79.26                       # Row buffer hit rate for reads
system.mem_ctrls.dram.writeRowHitRate             nan                       # Row buffer hit rate for writes
system.mem_ctrls.dram.bytesPerActivate::samples          121                       # Bytes accessed per row activation
system.mem_ctrls.dram.bytesPerActivate::mean   314.710744                       # Bytes accessed per row activation
system.mem_ctrls.dram.bytesPerActivate::gmean   197.251202                       # Bytes accessed per row activation
system.mem_ctrls.dram.bytesPerActivate::stdev   309.985899                       # Bytes accessed per row activation
system.mem_ctrls.dram.bytesPerActivate::0-127           36     29.75%     29.75% # Bytes accessed per row activation
system.mem_ctrls.dram.bytesPerActivate::128-255           36     29.75%     59.50% # Bytes accessed per row activation
system.mem_ctrls.dram.bytesPerActivate::256-383           13     10.74%     70.25% # Bytes accessed per row activation
system.mem_ctrls.dram.bytesPerActivate::384-511            6      4.96%     75.21% # Bytes accessed per row activation
system.mem_ctrls.dram.bytesPerActivate::512-639            6      4.96%     80.17% # Bytes accessed per row activation
system.mem_ctrls.dram.bytesPerActivate::640-767            8      6.61%     86.78% # Bytes accessed per row activation
system.mem_ctrls.dram.bytesPerActivate::768-895            3      2.48%     89.26% # Bytes accessed per row activation
system.mem_ctrls.dram.bytesPerActivate::896-1023            3      2.48%     91.74% # Bytes accessed per row activation
system.mem_ctrls.dram.bytesPerActivate::1024-1151           10      8.26%    100.00% # Bytes accessed per row activation
system.mem_ctrls.dram.bytesPerActivate::total          121                       # Bytes accessed per row activation
system.mem_ctrls.dram.bytesRead                 39808                       # Total number of bytes read from DRAM
system.mem_ctrls.dram.bytesWritten                  0                       # Total number of bytes written to DRAM
system.mem_ctrls.dram.avgRdBW              122.223280                       # Average DRAM read bandwidth in MiBytes/s
system.mem_ctrls.dram.avgWrBW                       0                       # Average DRAM write bandwidth in MiBytes/s
system.mem_ctrls.dram.peakBW                 12800.00                       # Theoretical peak bandwidth in MiByte/s
system.mem_ctrls.dram.busUtil                    0.95                       # Data bus utilization in percentage
system.mem_ctrls.dram.busUtilRead                0.95                       # Data bus utilization in percentage for reads
system.mem_ctrls.dram.busUtilWrite               0.00                       # Data bus utilization in percentage for writes
system.mem_ctrls.dram.pageHitRate               79.26                       # Row buffer hit rate, read and write combined
system.mem_ctrls.dram.power_state.pwrStateResidencyTicks::UNDEFINED    325699000                       # Cumulative time (in ticks) in various power states
system.mem_ctrls.dram.rank0.actEnergy          678300                       # Energy for activate commands per rank (pJ)
system.mem_ctrls.dram.rank0.preEnergy          341550                       # Energy for precharge commands per rank (pJ)
system.mem_ctrls.dram.rank0.readEnergy        3113040                       # Energy for read commands per rank (pJ)
system.mem_ctrls.dram.rank0.writeEnergy             0                       # Energy for write commands per rank (pJ)
system.mem_ctrls.dram.rank0.refreshEnergy 25200240.000000                       # Energy for refresh commands per rank (pJ)
system.mem_ctrls.dram.rank0.actBackEnergy     28546170                       # Energy for active background per rank (pJ)
system.mem_ctrls.dram.rank0.preBackEnergy    101029920                       # Energy for precharge background per rank (pJ)
system.mem_ctrls.dram.rank0.actPowerDownEnergy            0                       # Energy for active power-down per rank (pJ)
system.mem_ctrls.dram.rank0.prePowerDownEnergy            0                       # Energy for precharge power-down per rank (pJ)
system.mem_ctrls.dram.rank0.selfRefreshEnergy            0                       # Energy for self refresh per rank (pJ)
system.mem_ctrls.dram.rank0.totalEnergy     158909220                       # Total energy per rank (pJ)
system.mem_ctrls.dram.rank0.averagePower   487.902081                       # Core power per rank (mW)
system.mem_ctrls.dram.rank0.totalIdleTime            0                       # Total Idle time Per DRAM Rank
system.mem_ctrls.dram.rank0.pwrStateTime::IDLE    262406000                       # Time in different power states
system.mem_ctrls.dram.rank0.pwrStateTime::REF     10660000                       # Time in different power states
system.mem_ctrls.dram.rank0.pwrStateTime::SREF            0                       # Time in different power states
system.mem_ctrls.dram.rank0.pwrStateTime::PRE_PDN            0                       # Time in different power states
system.mem_ctrls.dram.rank0.pwrStateTime::ACT     52633000                       # Time in different power states
system.mem_ctrls.dram.rank0.pwrStateTime::ACT_PDN            0                       # Time in different power states
system.mem_ctrls.dram.rank1.actEnergy          242760                       # Energy for activate commands per rank (pJ)
system.mem_ctrls.dram.rank1.preEnergy          117645                       # Energy for precharge commands per rank (pJ)
system.mem_ctrls.dram.rank1.readEnergy        1328040                       # Energy for read commands per rank (pJ)
system.mem_ctrls.dram.rank1.writeEnergy             0                       # Energy for write commands per rank (pJ)
system.mem_ctrls.dram.rank1.refreshEnergy 25200240.000000                       # Energy for refresh commands per rank (pJ)
system.mem_ctrls.dram.rank1.actBackEnergy     21718140                       # Energy for active background per rank (pJ)
system.mem_ctrls.dram.rank1.preBackEnergy    106779840                       # Energy for precharge background per rank (pJ)
system.mem_ctrls.dram.rank1.actPowerDownEnergy            0                       # Energy for active power-down per rank (pJ)
system.mem_ctrls.dram.rank1.prePowerDownEnergy            0                       # Energy for precharge power-down per rank (pJ)
system.mem_ctrls.dram.rank1.selfRefreshEnergy            0                       # Energy for self refresh per rank (pJ)
system.mem_ctrls.dram.rank1.totalEnergy     155386665                       # Total energy per rank (pJ)
system.mem_ctrls.dram.rank1.averagePower   477.086712                       # Core power per rank (mW)
system.mem_ctrls.dram.rank1.totalIdleTime            0                       # Total Idle time Per DRAM Rank
system.mem_ctrls.dram.rank1.pwrStateTime::IDLE    277439000                       # Time in different power states
system.mem_ctrls.dram.rank1.pwrStateTime::REF     10660000                       # Time in different power states
system.mem_ctrls.dram.rank1.pwrStateTime::SREF            0                       # Time in different power states
system.mem_ctrls.dram.rank1.pwrStateTime::PRE_PDN            0                       # Time in different power states
system.mem_ctrls.dram.rank1.pwrStateTime::ACT     37600000                       # Time in different power states
system.mem_ctrls.dram.rank1.pwrStateTime::ACT_PDN            0                       # Time in different power states
system.mem_ctrls.power_state.pwrStateResidencyTicks::UNDEFINED    325699000                       # Cumulative time (in ticks) in various power states
system.membus.trans_dist::ReadResp                540                       # Transaction distribution
system.membus.trans_dist::ReadExReq                81                       # Transaction distribution
system.membus.trans_dist::ReadExResp               81                       # Transaction distribution
system.membus.trans_dist::ReadSharedReq           541                       # Transaction distribution
system.membus.pkt_count_system.l2.mem_side_port::system.mem_ctrls.port         1243                       # Packet count per connected requestor and responder (bytes)
system.membus.pkt_count_system.l2.mem_side_port::total         1243                       # Packet count per connected requestor and responder (bytes)
system.membus.pkt_count::total                   1243                       # Packet count per connected requestor and responder (bytes)
system.membus.pkt_size_system.l2.mem_side_port::system.mem_ctrls.port        39744                       # Cumulative packet size per connected requestor and responder (bytes)
system.membus.pkt_size_system.l2.mem_side_port::total        39744                       # Cumulative packet size per connected requestor and responder (bytes)
system.membus.pkt_size::total                   39744                       # Cumulative packet size per connected requestor and responder (bytes)
system.membus.snoops                                0                       # Total snoops (count)
system.membus.snoopTraffic                          0                       # Total snoop traffic (bytes)
system.membus.snoop_fanout::samples               622                       # Request fanout histogram
system.membus.snoop_fanout::mean                    0                       # Request fanout histogram
system.membus.snoop_fanout::stdev                   0                       # Request fanout histogram
system.membus.snoop_fanout::underflows              0      0.00%      0.00% # Request fanout histogram
system.membus.snoop_fanout::0                     622    100.00%    100.00% # Request fanout histogram
system.membus.snoop_fanout::1                       0      0.00%    100.00% # Request fanout histogram
system.membus.snoop_fanout::overflows               0      0.00%    100.00% # Request fanout histogram
system.membus.snoop_fanout::min_value               0                       # Request fanout histogram
system.membus.snoop_fanout::max_value               0                       # Request fanout histogram
system.membus.snoop_fanout::total                 622                       # Request fanout histogram
system.membus.power_state.pwrStateResidencyTicks::UNDEFINED    325699000                       # Cumulative time (in ticks) in various power states
system.membus.reqLayer0.occupancy              311000                       # Layer occupancy (ticks)
system.membus.reqLayer0.utilization               0.1                       # Layer utilization (%)
system.membus.respLayer1.occupancy            1688000                       # Layer occupancy (ticks)
system.membus.respLayer1.utilization              0.5                       # Layer utilization (%)
system.tol2bus.trans_dist::ReadResp               544                       # Transaction distribution
system.tol2bus.trans_dist::WritebackClean           52                       # Transaction distribution
system.tol2bus.trans_dist::ReadExReq               81                       # Transaction distribution
system.tol2bus.trans_dist::ReadExResp              81                       # Transaction distribution
system.tol2bus.trans_dist::ReadCleanReq           470                       # Transaction distribution
system.tol2bus.trans_dist::ReadSharedReq           75                       # Transaction distribution
system.tol2bus.pkt_count_system.cpu.icache.mem_side_port::system.l2.cpu_side_port          991                       # Packet count per connected requestor and responder (bytes)
system.tol2bus.pkt_count_system.cpu.dcache.mem_side_port::system.l2.cpu_side_port          312                       # Packet count per connected requestor and responder (bytes)
system.tol2bus.pkt_count::total                  1303                       # Packet count per connected requestor and responder (bytes)
system.tol2bus.pkt_size_system.cpu.icache.mem_side_port::system.l2.cpu_side_port        33344                       # Cumulative packet size per connected requestor and responder (bytes)
system.tol2bus.pkt_size_system.cpu.dcache.mem_side_port::system.l2.cpu_side_port         9984                       # Cumulative packet size per connected requestor and responder (bytes)
system.tol2bus.pkt_size::total                  43328                       # Cumulative packet size per connected requestor and responder (bytes)
system.tol2bus.snoops                               0                       # Total snoops (count)
system.tol2bus.snoopTraffic                         0                       # Total snoop traffic (bytes)
system.tol2bus.snoop_fanout::samples              626                       # Request fanout histogram
system.tol2bus.snoop_fanout::mean            0.001597                       # Request fanout histogram
system.tol2bus.snoop_fanout::stdev           0.039968                       # Request fanout histogram
system.tol2bus.snoop_fanout::underflows             0      0.00%      0.00% # Request fanout histogram
system.tol2bus.snoop_fanout::0                    625     99.84%     99.84% # Request fanout histogram
system.tol2bus.snoop_fanout::1                      1      0.16%    100.00% # Request fanout histogram
system.tol2bus.snoop_fanout::2                      0      0.00%    100.00% # Request fanout histogram
system.tol2bus.snoop_fanout::3                      0      0.00%    100.00% # Request fanout histogram
system.tol2bus.snoop_fanout::4                      0      0.00%    100.00% # Request fanout histogram
system.tol2bus.snoop_fanout::overflows              0      0.00%    100.00% # Request fanout histogram
system.tol2bus.snoop_fanout::min_value              0                       # Request fanout histogram
system.tol2bus.snoop_fanout::max_value              1                       # Request fanout histogram
system.tol2bus.snoop_fanout::total                626                       # Request fanout histogram
system.tol2bus.power_state.pwrStateResidencyTicks::UNDEFINED    325699000                       # Cumulative time (in ticks) in various power states
system.tol2bus.reqLayer0.occupancy             391000                       # Layer occupancy (ticks)
system.tol2bus.reqLayer0.utilization              0.1                       # Layer utilization (%)
system.tol2bus.respLayer0.occupancy            703500                       # Layer occupancy (ticks)
system.tol2bus.respLayer0.utilization             0.2                       # Layer utilization (%)
system.tol2bus.respLayer1.occupancy            234000                       # Layer occupancy (ticks)
system.tol2bus.respLayer1.utilization             0.1                       # Layer utilization (%)
system.voltage_domain.voltage                       1                       # Voltage in Volts

---------- End Simulation Statistics   ----------
